<?xml version='1.0' encoding='utf-8'?>
<routes xmlns:xsi="http://www.w3.org/2001/XMLSchema-instance" xsi:noNamespaceSchemaLocation="http://sumo.dlr.de/xsd/routes_file.xsd">
<vType id="veh_aggressive1" carFollowModel="EIDM" laneChangeModel="SL2015" minGap="1.08" accel="3.87" decel="4.37" emergencyDecel="6.08" startupDelay="1.08" tau="1.08" maxSpeed="61.55" speedFactor="0.87" ccoolness="0.77" sigmaleader="0.52" sigmagap="0.52" sigmaerror="0.52" jerkmax="4.37" epsilonacc="2.08" taccmax="2.08" lcStrategic="2.08" lcCooperative="0.37" lcSpeedGain="2.08" lcKeepRight="2.08" lcOvertakeRight="0.52" lcSpeedGainLookahead="3.37" lcOvertakeDeltaSpeedFactor="0.56" lcPushy="0.52" lcAssertive="0.79" lcImpatience="0.52" lcTimeToImpatience="7.89" lcLaneDiscipline="0.79" lcSigma="0.52" lcAccelLat="2.08" probability="0.5">
		<param key="device.rerouting.probability" value="1.0" />
		<param key="device.rerouting.adaptation-steps" value="18" />
		<param key="device.rerouting.adaptation-interval" value="10" />
	</vType>
<vType id="veh_aggressive0" carFollowModel="EIDM" laneChangeModel="SL2015" minGap="1.08" accel="3.87" decel="4.37" emergencyDecel="6.08" startupDelay="1.08" tau="1.08" maxSpeed="61.55" speedFactor="0.87" ccoolness="0.77" sigmaleader="0.52" sigmagap="0.52" sigmaerror="0.52" jerkmax="4.37" epsilonacc="2.08" taccmax="2.08" lcStrategic="2.08" lcCooperative="0.37" lcSpeedGain="2.08" lcKeepRight="2.08" lcOvertakeRight="0.52" lcSpeedGainLookahead="3.37" lcOvertakeDeltaSpeedFactor="0.56" lcPushy="0.52" lcAssertive="0.79" lcImpatience="0.52" lcTimeToImpatience="7.89" lcLaneDiscipline="0.79" lcSigma="0.52" lcAccelLat="2.08" probability="0.5">
		<param key="device.rerouting.probability" value="1.0" />
		<param key="device.rerouting.adaptation-steps" value="18" />
		<param key="device.rerouting.adaptation-interval" value="10" />
	</vType>
	<vType id="veh_normal1" carFollowModel="EIDM" laneChangeModel="SL2015" minGap="2.08" accel="2.08" decel="2.87" emergencyDecel="4.87" startupDelay="1.58" tau="1.58" maxSpeed="41.55" speedFactor="0.82" ccoolness="0.47" sigmaleader="0.22" sigmagap="0.22" sigmaerror="0.22" jerkmax="2.58" epsilonacc="0.79" taccmax="2.87" lcStrategic="0.79" lcCooperative="0.82" lcSpeedGain="0.79" lcKeepRight="0.79" lcOvertakeRight="0.06" lcSpeedGainLookahead="1.58" lcOvertakeDeltaSpeedFactor="0.73" lcPushy="0.06" lcAssertive="1.58" lcImpatience="0.06" lcTimeToImpatience="15.78" lcLaneDiscipline="1.58" lcSigma="0.22" lcAccelLat="0.79" probability="0.5">
		<param key="device.rerouting.probability" value="1.0" />
		<param key="device.rerouting.adaptation-steps" value="18" />
		<param key="device.rerouting.adaptation-interval" value="10" />
	</vType>
<vType id="veh_normal0" carFollowModel="EIDM" laneChangeModel="SL2015" minGap="2.08" accel="2.08" decel="2.87" emergencyDecel="4.87" startupDelay="1.58" tau="1.58" maxSpeed="41.55" speedFactor="0.82" ccoolness="0.47" sigmaleader="0.22" sigmagap="0.22" sigmaerror="0.22" jerkmax="2.58" epsilonacc="0.79" taccmax="2.87" lcStrategic="0.79" lcCooperative="0.82" lcSpeedGain="0.79" lcKeepRight="0.79" lcOvertakeRight="0.06" lcSpeedGainLookahead="1.58" lcOvertakeDeltaSpeedFactor="0.73" lcPushy="0.06" lcAssertive="1.58" lcImpatience="0.06" lcTimeToImpatience="15.78" lcLaneDiscipline="1.58" lcSigma="0.22" lcAccelLat="0.79" probability="0.5">
		<param key="device.rerouting.probability" value="1.0" />
		<param key="device.rerouting.adaptation-steps" value="18" />
		<param key="device.rerouting.adaptation-interval" value="10" />
	</vType>
	<trip id="veh_0_aggressive" type="veh_aggressive0" depart="0" from="25.0.00" to="25.0.00">
	<stop edge="-7.0.00" duration="10" />
	<stop edge="6.0.00" duration="10" />
	<stop edge="4.0.00" duration="10" />
	<stop edge="10.0.00" duration="10" />
	<stop edge="-12.0.00" duration="10" />
	<stop edge="10.0.00" duration="10" />
	<stop edge="10.0.00" duration="10" />
	<stop edge="6.0.00" duration="10" />
	<stop edge="10.0.00" duration="10" />
	<stop edge="-7.0.00" duration="10" />
	<stop edge="-12.0.00" duration="10" />
	<stop edge="-19.0.00" duration="10" />
	<stop edge="1.0.00" duration="10" />
	<stop edge="-19.0.00" duration="10" />
	<stop edge="1.0.00" duration="10" />
</trip><trip id="veh_0_normal" type="veh_normal0" depart="20" from="25.0.00" to="25.0.00">
	<stop edge="-7.0.00" duration="10" />
	<stop edge="6.0.00" duration="10" />
	<stop edge="4.0.00" duration="10" />
	<stop edge="10.0.00" duration="10" />
	<stop edge="-12.0.00" duration="10" />
	<stop edge="10.0.00" duration="10" />
	<stop edge="10.0.00" duration="10" />
	<stop edge="6.0.00" duration="10" />
	<stop edge="10.0.00" duration="10" />
	<stop edge="-7.0.00" duration="10" />
	<stop edge="-12.0.00" duration="10" />
	<stop edge="-19.0.00" duration="10" />
	<stop edge="1.0.00" duration="10" />
	<stop edge="-19.0.00" duration="10" />
	<stop edge="1.0.00" duration="10" />
</trip></routes>