<?xml version="1.0" ?>
<routes xmlns:xsi="http://www.w3.org/2001/XMLSchema-instance" xsi:noNamespaceSchemaLocation="http://sumo.dlr.de/xsd/routes_file.xsd">
  <vType id="veh_aggressive1" carFollowModel="EIDM" laneChangeModel="SL2015" minGap="0.39" accel="4.07" decel="4.57" emergencyDecel="8.12" startupDelay="0.75" tau="0.82" maxSpeed="76.11" speedFactor="0.81" ccoolness="0.7" sigmaleader="0.52" sigmagap="0.63" sigmaerror="0.34" jerkmax="11.47" epsilonacc="2.4" taccmax="1.12" lcStrategic="2.42" lcCooperative="0.21" lcSpeedGain="2.3" lcKeepRight="0.76" lcOvertakeRight="0.57" lcSpeedGainLookahead="1.93" lcOvertakeDeltaSpeedFactor="0.84" lcPushy="0.61" lcAssertive="2.89" lcImpatience="0.48" lcTimeToImpatience="9.99" lcLaneDiscipline="0.86" lcSigma="0.51" lcAccelLat="2.76" probability="0.45613230773956104">
    <param key="device.rerouting.probability" value="1.0"/>
    <param key="device.rerouting.adaptation-steps" value="18"/>
    <param key="device.rerouting.adaptation-interval" value="10"/>
  </vType>
  <vType id="veh_aggressive0" carFollowModel="EIDM" laneChangeModel="SL2015" minGap="1.1" accel="3.61" decel="4.72" emergencyDecel="8.41" startupDelay="0.72" tau="0.58" maxSpeed="81.0" speedFactor="0.85" ccoolness="0.71" sigmaleader="0.41" sigmagap="0.66" sigmaerror="0.36" jerkmax="10.63" epsilonacc="2.27" taccmax="1.18" lcStrategic="2.82" lcCooperative="0.33" lcSpeedGain="2.67" lcKeepRight="1.18" lcOvertakeRight="0.56" lcSpeedGainLookahead="2.61" lcOvertakeDeltaSpeedFactor="0.85" lcPushy="0.48" lcAssertive="2.64" lcImpatience="0.45" lcTimeToImpatience="6.43" lcLaneDiscipline="0.2" lcSigma="0.53" lcAccelLat="2.79" probability="0.5438676922604391">
    <param key="device.rerouting.probability" value="1.0"/>
    <param key="device.rerouting.adaptation-steps" value="18"/>
    <param key="device.rerouting.adaptation-interval" value="10"/>
  </vType>
  <vType id="veh_normal1" carFollowModel="EIDM" laneChangeModel="SL2015" minGap="2.02" accel="2.47" decel="3.1" emergencyDecel="6.89" startupDelay="1.84" tau="1.28" maxSpeed="61.63" speedFactor="0.88" ccoolness="0.43" sigmaleader="0.32" sigmagap="0.4" sigmaerror="0.16" jerkmax="6.09" epsilonacc="1.45" taccmax="1.42" lcStrategic="1.43" lcCooperative="0.7" lcSpeedGain="1.45" lcKeepRight="1.43" lcOvertakeRight="0.2" lcSpeedGainLookahead="1.94" lcOvertakeDeltaSpeedFactor="0.56" lcPushy="0.04" lcAssertive="1.65" lcImpatience="0.21" lcTimeToImpatience="13.6" lcLaneDiscipline="1.67" lcSigma="0.12" lcAccelLat="1.39" probability="0.6465905008680298">
    <param key="device.rerouting.probability" value="1.0"/>
    <param key="device.rerouting.adaptation-steps" value="18"/>
    <param key="device.rerouting.adaptation-interval" value="10"/>
  </vType>
  <vType id="veh_normal0" carFollowModel="EIDM" laneChangeModel="SL2015" minGap="3.07" accel="2.63" decel="2.45" emergencyDecel="7.56" startupDelay="1.52" tau="1.83" maxSpeed="58.44" speedFactor="0.85" ccoolness="0.52" sigmaleader="0.26" sigmagap="0.39" sigmaerror="0.12" jerkmax="5.59" epsilonacc="1.84" taccmax="1.62" lcStrategic="1.4" lcCooperative="0.63" lcSpeedGain="1.42" lcKeepRight="1.59" lcOvertakeRight="0.17" lcSpeedGainLookahead="1.72" lcOvertakeDeltaSpeedFactor="0.62" lcPushy="0.17" lcAssertive="1.39" lcImpatience="0.16" lcTimeToImpatience="14.98" lcLaneDiscipline="1.42" lcSigma="0.18" lcAccelLat="1.59" probability="0.3534094991319703">
    <param key="device.rerouting.probability" value="1.0"/>
    <param key="device.rerouting.adaptation-steps" value="18"/>
    <param key="device.rerouting.adaptation-interval" value="10"/>
  </vType>
  <vType id="veh_aggressive" carFollowModel="EIDM" laneChangeModel="SL2015" maxSpeed="19.444444444444443" accel="3.0" decel="5.0" speedFactor="1.2" emergencyDecel="10.0" vClass="passenger" probability="1.0">
    <param key="device.rerouting.probability" value="1.0"/>
    <param key="device.rerouting.adaptation-steps" value="18"/>
    <param key="device.rerouting.adaptation-interval" value="10"/>
  </vType>
  <vType id="veh_normal" carFollowModel="EIDM" laneChangeModel="SL2015" maxSpeed="13.88888888888889" accel="2.5" decel="4.5" speedFactor="1.0" emergencyDecel="9.0" vClass="passenger" probability="1.0">
    <param key="device.rerouting.probability" value="1.0"/>
    <param key="device.rerouting.adaptation-steps" value="18"/>
    <param key="device.rerouting.adaptation-interval" value="10"/>
  </vType>
  <trip id="veh_0_aggressive" type="veh_aggressive0" depart="0" from="25.0.00" to="25.0.00">
    <stop edge="-7.0.00" duration="10"/>
    <stop edge="-12.0.00" duration="10"/>
    <stop edge="10.0.00" duration="10"/>
    <stop edge="6.0.00" duration="10"/>
    <stop edge="4.0.00" duration="10"/>
    <stop edge="10.0.00" duration="10"/>
    <stop edge="-19.0.00" duration="10"/>
    <stop edge="1.0.00" duration="10"/>
  </trip>
  <trip id="veh_1_aggressive" type="veh_aggressive0" depart="0" from="25.0.00" to="25.0.00">
    <stop edge="-7.0.00" duration="10"/>
    <stop edge="4.0.00" duration="10"/>
    <stop edge="6.0.00" duration="10"/>
    <stop edge="-12.0.00" duration="10"/>
    <stop edge="10.0.00" duration="10"/>
    <stop edge="10.0.00" duration="10"/>
    <stop edge="-19.0.00" duration="10"/>
    <stop edge="1.0.00" duration="10"/>
    <stop edge="10.0.00" duration="10"/>
    <stop edge="10.0.00" duration="10"/>
  </trip>
  <trip id="veh_2_aggressive" type="veh_aggressive0" depart="0" from="25.0.00" to="25.0.00">
    <stop edge="-7.0.00" duration="10"/>
    <stop edge="-12.0.00" duration="10"/>
    <stop edge="4.0.00" duration="10"/>
    <stop edge="10.0.00" duration="10"/>
    <stop edge="6.0.00" duration="10"/>
    <stop edge="-19.0.00" duration="10"/>
    <stop edge="10.0.00" duration="10"/>
    <stop edge="1.0.00" duration="10"/>
  </trip>
  <trip id="veh_3_aggressive" type="veh_aggressive0" depart="0" from="25.0.00" to="25.0.00">
    <stop edge="-7.0.00" duration="10"/>
    <stop edge="-12.0.00" duration="10"/>
    <stop edge="4.0.00" duration="10"/>
    <stop edge="6.0.00" duration="10"/>
    <stop edge="10.0.00" duration="10"/>
    <stop edge="-19.0.00" duration="10"/>
    <stop edge="1.0.00" duration="10"/>
    <stop edge="10.0.00" duration="10"/>
    <stop edge="-7.0.00" duration="10"/>
  </trip>
  <trip id="veh_4_aggressive" type="veh_aggressive0" depart="0" from="25.0.00" to="25.0.00">
    <stop edge="-7.0.00" duration="10"/>
    <stop edge="-12.0.00" duration="10"/>
    <stop edge="6.0.00" duration="10"/>
    <stop edge="-19.0.00" duration="10"/>
    <stop edge="10.0.00" duration="10"/>
    <stop edge="4.0.00" duration="10"/>
    <stop edge="1.0.00" duration="10"/>
    <stop edge="10.0.00" duration="10"/>
    <stop edge="-7.0.00" duration="10"/>
  </trip>
  <trip id="veh_5_aggressive" type="veh_aggressive0" depart="0" from="25.0.00" to="25.0.00">
    <stop edge="-7.0.00" duration="10"/>
    <stop edge="6.0.00" duration="10"/>
    <stop edge="10.0.00" duration="10"/>
    <stop edge="-7.0.00" duration="10"/>
    <stop edge="-12.0.00" duration="10"/>
    <stop edge="1.0.00" duration="10"/>
    <stop edge="-19.0.00" duration="10"/>
    <stop edge="4.0.00" duration="10"/>
    <stop edge="10.0.00" duration="10"/>
  </trip>
  <trip id="veh_6_aggressive" type="veh_aggressive0" depart="0" from="25.0.00" to="25.0.00">
    <stop edge="-7.0.00" duration="10"/>
    <stop edge="4.0.00" duration="10"/>
    <stop edge="10.0.00" duration="10"/>
    <stop edge="-12.0.00" duration="10"/>
    <stop edge="10.0.00" duration="10"/>
    <stop edge="6.0.00" duration="10"/>
    <stop edge="-19.0.00" duration="10"/>
    <stop edge="1.0.00" duration="10"/>
    <stop edge="10.0.00" duration="10"/>
  </trip>
  <trip id="veh_7_aggressive" type="veh_aggressive0" depart="0" from="25.0.00" to="25.0.00">
    <stop edge="-7.0.00" duration="10"/>
    <stop edge="4.0.00" duration="10"/>
    <stop edge="-12.0.00" duration="10"/>
    <stop edge="10.0.00" duration="10"/>
    <stop edge="6.0.00" duration="10"/>
    <stop edge="10.0.00" duration="10"/>
    <stop edge="-19.0.00" duration="10"/>
    <stop edge="1.0.00" duration="10"/>
    <stop edge="10.0.00" duration="10"/>
    <stop edge="6.0.00" duration="10"/>
  </trip>
  <trip id="veh_8_aggressive" type="veh_aggressive0" depart="0" from="25.0.00" to="25.0.00">
    <stop edge="-7.0.00" duration="10"/>
    <stop edge="4.0.00" duration="10"/>
    <stop edge="10.0.00" duration="10"/>
    <stop edge="6.0.00" duration="10"/>
    <stop edge="-12.0.00" duration="10"/>
    <stop edge="10.0.00" duration="10"/>
    <stop edge="-19.0.00" duration="10"/>
    <stop edge="1.0.00" duration="10"/>
    <stop edge="10.0.00" duration="10"/>
    <stop edge="6.0.00" duration="10"/>
  </trip>
  <trip id="veh_9_aggressive" type="veh_aggressive0" depart="0" from="25.0.00" to="25.0.00">
    <stop edge="-7.0.00" duration="10"/>
    <stop edge="4.0.00" duration="10"/>
    <stop edge="10.0.00" duration="10"/>
    <stop edge="6.0.00" duration="10"/>
    <stop edge="-12.0.00" duration="10"/>
    <stop edge="10.0.00" duration="10"/>
    <stop edge="-19.0.00" duration="10"/>
    <stop edge="1.0.00" duration="10"/>
  </trip>
  <vehicle id="0" depart="0.00" type="veh_normal">
    <route edges="16.0.00 -1.0.00 -25.0.00 -10.0.00"/>
  </vehicle>
  <vehicle id="1" depart="10.00" type="veh_normal">
    <route edges="-23.0.00 -12.0.00 18.0.00 17.0.00 16.0.00 -1.0.00 -2.0.00"/>
  </vehicle>
  <trip id="veh_0_normal" type="veh_normal0" depart="20" from="25.0.00" to="25.0.00">
    <stop edge="-7.0.00" duration="10"/>
    <stop edge="-12.0.00" duration="10"/>
    <stop edge="10.0.00" duration="10"/>
    <stop edge="6.0.00" duration="10"/>
    <stop edge="4.0.00" duration="10"/>
    <stop edge="10.0.00" duration="10"/>
    <stop edge="-19.0.00" duration="10"/>
    <stop edge="1.0.00" duration="10"/>
  </trip>
  <trip id="veh_1_normal" type="veh_normal0" depart="20" from="25.0.00" to="25.0.00">
    <stop edge="-7.0.00" duration="10"/>
    <stop edge="4.0.00" duration="10"/>
    <stop edge="6.0.00" duration="10"/>
    <stop edge="-12.0.00" duration="10"/>
    <stop edge="10.0.00" duration="10"/>
    <stop edge="10.0.00" duration="10"/>
    <stop edge="-19.0.00" duration="10"/>
    <stop edge="1.0.00" duration="10"/>
    <stop edge="10.0.00" duration="10"/>
    <stop edge="10.0.00" duration="10"/>
  </trip>
  <trip id="veh_2_normal" type="veh_normal0" depart="20" from="25.0.00" to="25.0.00">
    <stop edge="-7.0.00" duration="10"/>
    <stop edge="-12.0.00" duration="10"/>
    <stop edge="4.0.00" duration="10"/>
    <stop edge="10.0.00" duration="10"/>
    <stop edge="6.0.00" duration="10"/>
    <stop edge="-19.0.00" duration="10"/>
    <stop edge="10.0.00" duration="10"/>
    <stop edge="1.0.00" duration="10"/>
  </trip>
  <trip id="veh_3_normal" type="veh_normal0" depart="20" from="25.0.00" to="25.0.00">
    <stop edge="-7.0.00" duration="10"/>
    <stop edge="-12.0.00" duration="10"/>
    <stop edge="4.0.00" duration="10"/>
    <stop edge="6.0.00" duration="10"/>
    <stop edge="10.0.00" duration="10"/>
    <stop edge="-19.0.00" duration="10"/>
    <stop edge="1.0.00" duration="10"/>
    <stop edge="10.0.00" duration="10"/>
    <stop edge="-7.0.00" duration="10"/>
  </trip>
  <trip id="veh_4_normal" type="veh_normal0" depart="20" from="25.0.00" to="25.0.00">
    <stop edge="-7.0.00" duration="10"/>
    <stop edge="-12.0.00" duration="10"/>
    <stop edge="6.0.00" duration="10"/>
    <stop edge="-19.0.00" duration="10"/>
    <stop edge="10.0.00" duration="10"/>
    <stop edge="4.0.00" duration="10"/>
    <stop edge="1.0.00" duration="10"/>
    <stop edge="10.0.00" duration="10"/>
    <stop edge="-7.0.00" duration="10"/>
  </trip>
  <trip id="veh_5_normal" type="veh_normal0" depart="20" from="25.0.00" to="25.0.00">
    <stop edge="-7.0.00" duration="10"/>
    <stop edge="6.0.00" duration="10"/>
    <stop edge="10.0.00" duration="10"/>
    <stop edge="-7.0.00" duration="10"/>
    <stop edge="-12.0.00" duration="10"/>
    <stop edge="1.0.00" duration="10"/>
    <stop edge="-19.0.00" duration="10"/>
    <stop edge="4.0.00" duration="10"/>
    <stop edge="10.0.00" duration="10"/>
  </trip>
  <trip id="veh_6_normal" type="veh_normal0" depart="20" from="25.0.00" to="25.0.00">
    <stop edge="-7.0.00" duration="10"/>
    <stop edge="4.0.00" duration="10"/>
    <stop edge="10.0.00" duration="10"/>
    <stop edge="-12.0.00" duration="10"/>
    <stop edge="10.0.00" duration="10"/>
    <stop edge="6.0.00" duration="10"/>
    <stop edge="-19.0.00" duration="10"/>
    <stop edge="1.0.00" duration="10"/>
    <stop edge="10.0.00" duration="10"/>
  </trip>
  <trip id="veh_7_normal" type="veh_normal0" depart="20" from="25.0.00" to="25.0.00">
    <stop edge="-7.0.00" duration="10"/>
    <stop edge="4.0.00" duration="10"/>
    <stop edge="-12.0.00" duration="10"/>
    <stop edge="10.0.00" duration="10"/>
    <stop edge="6.0.00" duration="10"/>
    <stop edge="10.0.00" duration="10"/>
    <stop edge="-19.0.00" duration="10"/>
    <stop edge="1.0.00" duration="10"/>
    <stop edge="10.0.00" duration="10"/>
    <stop edge="6.0.00" duration="10"/>
  </trip>
  <trip id="veh_8_normal" type="veh_normal0" depart="20" from="25.0.00" to="25.0.00">
    <stop edge="-7.0.00" duration="10"/>
    <stop edge="4.0.00" duration="10"/>
    <stop edge="10.0.00" duration="10"/>
    <stop edge="6.0.00" duration="10"/>
    <stop edge="-12.0.00" duration="10"/>
    <stop edge="10.0.00" duration="10"/>
    <stop edge="-19.0.00" duration="10"/>
    <stop edge="1.0.00" duration="10"/>
    <stop edge="10.0.00" duration="10"/>
    <stop edge="6.0.00" duration="10"/>
  </trip>
  <trip id="veh_9_normal" type="veh_normal0" depart="20" from="25.0.00" to="25.0.00">
    <stop edge="-7.0.00" duration="10"/>
    <stop edge="4.0.00" duration="10"/>
    <stop edge="10.0.00" duration="10"/>
    <stop edge="6.0.00" duration="10"/>
    <stop edge="-12.0.00" duration="10"/>
    <stop edge="10.0.00" duration="10"/>
    <stop edge="-19.0.00" duration="10"/>
    <stop edge="1.0.00" duration="10"/>
  </trip>
  <vehicle id="2" depart="20.00" type="veh_normal">
    <route edges="2.0.00 -25.0.00 9.0.00 -22.0.00 -23.0.00 -12.0.00 18.0.00"/>
  </vehicle>
  <vehicle id="3" depart="30.00" type="veh_normal">
    <route edges="4.0.00 22.0.00 21.0.00 2.0.00 1.0.00 0.0.00 -14.0.00"/>
  </vehicle>
  <vehicle id="4" depart="40.00" type="veh_normal">
    <route edges="-6.0.00 19.0.00 18.0.00 4.0.00 22.0.00 -9.0.00 -10.0.00"/>
  </vehicle>
  <vehicle id="5" depart="50.00" type="veh_normal">
    <route edges="-2.0.00 -21.0.00 -9.0.00 -10.0.00 16.0.00 0.0.00"/>
  </vehicle>
  <vehicle id="6" depart="60.00" type="veh_normal">
    <route edges="-10.0.00 -17.0.00 -18.0.00 -19.0.00"/>
  </vehicle>
  <vehicle id="7" depart="70.00" type="veh_normal">
    <route edges="16.0.00 -1.0.00 -25.0.00 9.0.00 21.0.00 2.0.00 1.0.00"/>
  </vehicle>
  <vehicle id="8" depart="80.00" type="veh_normal">
    <route edges="-2.0.00 -21.0.00 -22.0.00 -4.0.00 -18.0.00 12.0.00"/>
  </vehicle>
  <vehicle id="9" depart="90.00" type="veh_normal">
    <route edges="23.0.00 22.0.00 -9.0.00 -10.0.00 16.0.00 -1.0.00"/>
  </vehicle>
  <vehicle id="10" depart="100.00" type="veh_normal">
    <route edges="23.0.00 22.0.00 21.0.00 2.0.00 -25.0.00 9.0.00 -22.0.00 -23.0.00 -12.0.00 18.0.00"/>
  </vehicle>
  <vehicle id="11" depart="110.00" type="veh_normal">
    <route edges="-25.0.00 -10.0.00 -17.0.00 -18.0.00"/>
  </vehicle>
  <vehicle id="12" depart="120.00" type="veh_normal">
    <route edges="7.0.00 19.0.00 18.0.00 17.0.00 16.0.00 -1.0.00 -25.0.00"/>
  </vehicle>
  <vehicle id="13" depart="130.00" type="veh_normal">
    <route edges="-14.0.00"/>
  </vehicle>
  <vehicle id="14" depart="140.00" type="veh_normal">
    <route edges="24.0.00 -12.0.00 -19.0.00 -7.0.00 14.0.00"/>
  </vehicle>
  <vehicle id="15" depart="150.00" type="veh_normal">
    <route edges="23.0.00 22.0.00 21.0.00 2.0.00"/>
  </vehicle>
  <vehicle id="16" depart="160.00" type="veh_normal">
    <route edges="1.0.00 0.0.00 -14.0.00 7.0.00"/>
  </vehicle>
  <vehicle id="17" depart="170.00" type="veh_normal">
    <route edges="-4.0.00 17.0.00 10.0.00"/>
  </vehicle>
  <vehicle id="18" depart="180.00" type="veh_normal">
    <route edges="24.0.00 -12.0.00 -19.0.00 -7.0.00 14.0.00"/>
  </vehicle>
  <vehicle id="19" depart="190.00" type="veh_normal">
    <route edges="25.0.00 1.0.00 -16.0.00 -17.0.00 -18.0.00 12.0.00"/>
  </vehicle>
  <vehicle id="20" depart="200.00" type="veh_normal">
    <route edges="19.0.00 18.0.00 4.0.00 22.0.00 -9.0.00 -10.0.00"/>
  </vehicle>
  <vehicle id="21" depart="210.00" type="veh_normal">
    <route edges="-21.0.00 -22.0.00 -23.0.00"/>
  </vehicle>
  <vehicle id="22" depart="220.00" type="veh_normal">
    <route edges="-14.0.00 7.0.00 19.0.00 18.0.00 17.0.00 16.0.00 -1.0.00 -2.0.00 -21.0.00"/>
  </vehicle>
  <vehicle id="23" depart="230.00" type="veh_normal">
    <route edges="-16.0.00 10.0.00 9.0.00 -22.0.00 -23.0.00"/>
  </vehicle>
  <vehicle id="24" depart="240.00" type="veh_normal">
    <route edges="16.0.00 -1.0.00 -2.0.00 -3.0.00"/>
  </vehicle>
  <vehicle id="25" depart="250.00" type="veh_normal">
    <route edges="-3.0.00 24.0.00 23.0.00 22.0.00 -9.0.00 25.0.00 -2.0.00"/>
  </vehicle>
  <vehicle id="26" depart="260.00" type="veh_normal">
    <route edges="-22.0.00 -4.0.00 -18.0.00 -19.0.00 6.0.00"/>
  </vehicle>
  <vehicle id="27" depart="270.00" type="veh_normal">
    <route edges="16.0.00 -1.0.00 -25.0.00 -10.0.00 -17.0.00 -18.0.00 -19.0.00 -7.0.00 14.0.00"/>
  </vehicle>
  <vehicle id="28" depart="280.00" type="veh_normal">
    <route edges="-18.0.00 12.0.00 23.0.00 22.0.00 21.0.00 2.0.00"/>
  </vehicle>
  <vehicle id="29" depart="290.00" type="veh_normal">
    <route edges="-18.0.00 12.0.00 23.0.00 -4.0.00"/>
  </vehicle>
  <vehicle id="30" depart="300.00" type="veh_normal">
    <route edges="9.0.00 21.0.00 2.0.00 -25.0.00 -10.0.00 16.0.00"/>
  </vehicle>
  <vehicle id="31" depart="310.00" type="veh_normal">
    <route edges="10.0.00 9.0.00 -22.0.00 -23.0.00 -12.0.00 18.0.00"/>
  </vehicle>
  <vehicle id="32" depart="320.00" type="veh_normal">
    <route edges="24.0.00 23.0.00 22.0.00"/>
  </vehicle>
  <vehicle id="33" depart="330.00" type="veh_normal">
    <route edges="-21.0.00 -9.0.00 -10.0.00"/>
  </vehicle>
  <vehicle id="34" depart="340.00" type="veh_normal">
    <route edges="-24.0.00 5.0.00 -21.0.00 -22.0.00"/>
  </vehicle>
  <vehicle id="35" depart="350.00" type="veh_normal">
    <route edges="-2.0.00 -21.0.00 -22.0.00 -4.0.00 -18.0.00 -19.0.00 6.0.00"/>
  </vehicle>
  <vehicle id="36" depart="360.00" type="veh_normal">
    <route edges="4.0.00 -23.0.00 -24.0.00"/>
  </vehicle>
  <vehicle id="37" depart="370.00" type="veh_normal">
    <route edges="17.0.00 10.0.00 9.0.00 -22.0.00 -4.0.00"/>
  </vehicle>
  <vehicle id="38" depart="380.00" type="veh_normal">
    <route edges="5.0.00 -21.0.00 -22.0.00 -23.0.00 -24.0.00 -6.0.00 -7.0.00 14.0.00 -8.0.00"/>
  </vehicle>
  <vehicle id="39" depart="390.00" type="veh_normal">
    <route edges="-22.0.00 -23.0.00 -24.0.00 5.0.00 -21.0.00"/>
  </vehicle>
  <vehicle id="40" depart="400.00" type="veh_normal">
    <route edges="10.0.00 9.0.00 -22.0.00"/>
  </vehicle>
  <vehicle id="41" depart="410.00" type="veh_normal">
    <route edges="12.0.00 23.0.00 22.0.00 -9.0.00 -10.0.00 -17.0.00 4.0.00"/>
  </vehicle>
  <vehicle id="42" depart="420.00" type="veh_normal">
    <route edges="-4.0.00 17.0.00 16.0.00 -1.0.00 -2.0.00"/>
  </vehicle>
  <vehicle id="43" depart="430.00" type="veh_normal">
    <route edges="9.0.00 21.0.00 2.0.00 1.0.00 0.0.00"/>
  </vehicle>
  <vehicle id="44" depart="440.00" type="veh_normal">
    <route edges="-14.0.00 7.0.00 6.0.00 24.0.00 23.0.00 22.0.00 -9.0.00 -10.0.00"/>
  </vehicle>
  <vehicle id="45" depart="450.00" type="veh_normal">
    <route edges="-16.0.00 -17.0.00 4.0.00 22.0.00 -9.0.00 -10.0.00 16.0.00"/>
  </vehicle>
  <vehicle id="46" depart="460.00" type="veh_normal">
    <route edges="22.0.00 21.0.00 -3.0.00 -6.0.00"/>
  </vehicle>
  <vehicle id="47" depart="470.00" type="veh_normal">
    <route edges="-12.0.00 18.0.00 17.0.00 10.0.00 9.0.00 -22.0.00 -4.0.00"/>
  </vehicle>
  <vehicle id="48" depart="480.00" type="veh_normal">
    <route edges="9.0.00 21.0.00 2.0.00 1.0.00"/>
  </vehicle>
  <vehicle id="49" depart="490.00" type="veh_normal">
    <route edges="7.0.00 19.0.00 18.0.00 17.0.00 10.0.00 25.0.00"/>
  </vehicle>
  <vehicle id="50" depart="500.00" type="veh_normal">
    <route edges="-1.0.00 -2.0.00 -21.0.00 -22.0.00 -23.0.00 -24.0.00 -6.0.00 19.0.00"/>
  </vehicle>
  <vehicle id="51" depart="510.00" type="veh_normal">
    <route edges="18.0.00 17.0.00 10.0.00 25.0.00 1.0.00"/>
  </vehicle>
  <vehicle id="52" depart="520.00" type="veh_normal">
    <route edges="-22.0.00 -4.0.00 17.0.00 16.0.00"/>
  </vehicle>
  <vehicle id="53" depart="530.00" type="veh_normal">
    <route edges="-16.0.00 -17.0.00 -18.0.00 -19.0.00 -7.0.00"/>
  </vehicle>
  <vehicle id="54" depart="540.00" type="veh_normal">
    <route edges="-8.0.00 -16.0.00 10.0.00 25.0.00 1.0.00 0.0.00 -14.0.00 7.0.00"/>
  </vehicle>
  <vehicle id="55" depart="550.00" type="veh_normal">
    <route edges="4.0.00 22.0.00 21.0.00 2.0.00 -25.0.00 9.0.00 -22.0.00"/>
  </vehicle>
  <vehicle id="56" depart="560.00" type="veh_normal">
    <route edges="0.0.00 -14.0.00 7.0.00 6.0.00 24.0.00 -12.0.00 -19.0.00"/>
  </vehicle>
  <vehicle id="57" depart="570.00" type="veh_normal">
    <route edges="5.0.00 -21.0.00 -9.0.00 25.0.00"/>
  </vehicle>
  <vehicle id="58" depart="580.00" type="veh_normal">
    <route edges="-23.0.00 -12.0.00 18.0.00 17.0.00 16.0.00"/>
  </vehicle>
  <vehicle id="59" depart="590.00" type="veh_normal">
    <route edges="14.0.00 -8.0.00 -16.0.00 -17.0.00 -18.0.00"/>
  </vehicle>
  <vehicle id="60" depart="600.00" type="veh_normal">
    <route edges="21.0.00 2.0.00 1.0.00"/>
  </vehicle>
  <vehicle id="61" depart="610.00" type="veh_normal">
    <route edges="22.0.00 21.0.00 2.0.00 1.0.00"/>
  </vehicle>
  <vehicle id="62" depart="620.00" type="veh_normal">
    <route edges="-1.0.00 -2.0.00 -21.0.00 -22.0.00 -23.0.00 -24.0.00"/>
  </vehicle>
  <vehicle id="63" depart="630.00" type="veh_normal">
    <route edges="-1.0.00 -25.0.00 -10.0.00 -17.0.00 -18.0.00 -19.0.00 6.0.00"/>
  </vehicle>
  <vehicle id="64" depart="640.00" type="veh_normal">
    <route edges="4.0.00 22.0.00 21.0.00 -3.0.00 24.0.00"/>
  </vehicle>
  <vehicle id="65" depart="650.00" type="veh_normal">
    <route edges="-24.0.00 5.0.00 -21.0.00 -22.0.00 -23.0.00 -12.0.00"/>
  </vehicle>
  <vehicle id="66" depart="660.00" type="veh_normal">
    <route edges="4.0.00 -23.0.00 -12.0.00 -19.0.00 6.0.00"/>
  </vehicle>
  <vehicle id="67" depart="670.00" type="veh_normal">
    <route edges="-14.0.00 7.0.00 6.0.00 24.0.00 23.0.00 22.0.00 -9.0.00"/>
  </vehicle>
  <vehicle id="68" depart="680.00" type="veh_normal">
    <route edges="-12.0.00 18.0.00 4.0.00 22.0.00 21.0.00"/>
  </vehicle>
  <vehicle id="69" depart="690.00" type="veh_normal">
    <route edges="21.0.00 2.0.00 1.0.00 -16.0.00 -17.0.00"/>
  </vehicle>
  <vehicle id="70" depart="700.00" type="veh_normal">
    <route edges="-9.0.00 25.0.00 1.0.00"/>
  </vehicle>
  <vehicle id="71" depart="710.00" type="veh_normal">
    <route edges="-22.0.00 -4.0.00 17.0.00 10.0.00 25.0.00"/>
  </vehicle>
  <vehicle id="72" depart="720.00" type="veh_normal">
    <route edges="-6.0.00 19.0.00 18.0.00 17.0.00 16.0.00 -1.0.00 -2.0.00"/>
  </vehicle>
  <vehicle id="73" depart="730.00" type="veh_normal">
    <route edges="1.0.00 -16.0.00 10.0.00 9.0.00 21.0.00 2.0.00"/>
  </vehicle>
  <vehicle id="74" depart="740.00" type="veh_normal">
    <route edges="-2.0.00 -21.0.00 -22.0.00 -23.0.00 -24.0.00"/>
  </vehicle>
  <vehicle id="75" depart="750.00" type="veh_normal">
    <route edges="9.0.00 21.0.00 2.0.00 -25.0.00 -10.0.00 16.0.00"/>
  </vehicle>
  <vehicle id="76" depart="760.00" type="veh_normal">
    <route edges="-7.0.00 14.0.00 -8.0.00 -16.0.00 10.0.00 25.0.00 1.0.00 0.0.00"/>
  </vehicle>
  <vehicle id="77" depart="770.00" type="veh_normal">
    <route edges="-16.0.00 10.0.00 25.0.00 -2.0.00"/>
  </vehicle>
  <vehicle id="78" depart="780.00" type="veh_normal">
    <route edges="-25.0.00 -10.0.00 -17.0.00 -18.0.00 12.0.00"/>
  </vehicle>
  <vehicle id="79" depart="790.00" type="veh_normal">
    <route edges="-21.0.00 -9.0.00 25.0.00 -2.0.00"/>
  </vehicle>
  <vehicle id="80" depart="800.00" type="veh_normal">
    <route edges="-12.0.00 18.0.00 17.0.00 16.0.00"/>
  </vehicle>
  <vehicle id="81" depart="810.00" type="veh_normal">
    <route edges="-21.0.00 -22.0.00 -23.0.00 -24.0.00 5.0.00"/>
  </vehicle>
  <vehicle id="82" depart="820.00" type="veh_normal">
    <route edges="25.0.00 -2.0.00 -21.0.00 -22.0.00 -23.0.00 -12.0.00"/>
  </vehicle>
  <vehicle id="83" depart="830.00" type="veh_normal">
    <route edges="-21.0.00 -22.0.00 -4.0.00 17.0.00"/>
  </vehicle>
  <vehicle id="84" depart="840.00" type="veh_normal">
    <route edges="-2.0.00 -21.0.00 -9.0.00 -10.0.00 -17.0.00"/>
  </vehicle>
  <vehicle id="85" depart="850.00" type="veh_normal">
    <route edges="6.0.00 24.0.00 -12.0.00 18.0.00 17.0.00 10.0.00"/>
  </vehicle>
  <vehicle id="86" depart="860.00" type="veh_normal">
    <route edges="-8.0.00 -16.0.00 -17.0.00 4.0.00 22.0.00"/>
  </vehicle>
  <vehicle id="87" depart="870.00" type="veh_normal">
    <route edges="23.0.00 -4.0.00 -18.0.00 -19.0.00"/>
  </vehicle>
  <vehicle id="88" depart="880.00" type="veh_normal">
    <route edges="-14.0.00 7.0.00 6.0.00 24.0.00 -12.0.00 -19.0.00 -7.0.00"/>
  </vehicle>
  <vehicle id="89" depart="890.00" type="veh_normal">
    <route edges="-6.0.00 -7.0.00 14.0.00 -8.0.00"/>
  </vehicle>
  <vehicle id="90" depart="900.00" type="veh_normal">
    <route edges="2.0.00 -25.0.00 9.0.00 -22.0.00 -4.0.00 17.0.00"/>
  </vehicle>
  <vehicle id="91" depart="910.00" type="veh_normal">
    <route edges="9.0.00 21.0.00 2.0.00 1.0.00 0.0.00 -14.0.00"/>
  </vehicle>
  <vehicle id="92" depart="920.00" type="veh_normal">
    <route edges="-6.0.00 19.0.00 18.0.00 17.0.00 16.0.00 -1.0.00 -25.0.00"/>
  </vehicle>
  <vehicle id="93" depart="930.00" type="veh_normal">
    <route edges="25.0.00 -2.0.00 -21.0.00"/>
  </vehicle>
  <vehicle id="94" depart="940.00" type="veh_normal">
    <route edges="-19.0.00 -7.0.00"/>
  </vehicle>
  <vehicle id="95" depart="950.00" type="veh_normal">
    <route edges="-6.0.00 19.0.00 18.0.00 4.0.00 -23.0.00"/>
  </vehicle>
  <vehicle id="96" depart="960.00" type="veh_normal">
    <route edges="-21.0.00 -22.0.00 -23.0.00 -24.0.00 5.0.00"/>
  </vehicle>
  <vehicle id="97" depart="970.00" type="veh_normal">
    <route edges="-7.0.00 14.0.00 -8.0.00 -16.0.00 10.0.00 25.0.00"/>
  </vehicle>
  <vehicle id="98" depart="980.00" type="veh_normal">
    <route edges="10.0.00 9.0.00 -22.0.00 -23.0.00 -12.0.00"/>
  </vehicle>
  <vehicle id="99" depart="990.00" type="veh_normal">
    <route edges="9.0.00 21.0.00 -3.0.00 24.0.00"/>
  </vehicle>
  <vehicle id="100" depart="1000.00" type="veh_aggressive">
    <route edges="7.0.00 6.0.00"/>
  </vehicle>
  <vehicle id="101" depart="1010.00" type="veh_aggressive">
    <route edges="24.0.00 23.0.00 -4.0.00 -18.0.00"/>
  </vehicle>
  <vehicle id="102" depart="1020.00" type="veh_aggressive">
    <route edges="-9.0.00 25.0.00 -2.0.00"/>
  </vehicle>
  <vehicle id="103" depart="1030.00" type="veh_aggressive">
    <route edges="-6.0.00 19.0.00 18.0.00 4.0.00 -23.0.00 -12.0.00"/>
  </vehicle>
  <vehicle id="104" depart="1040.00" type="veh_aggressive">
    <route edges="-4.0.00 17.0.00 10.0.00 9.0.00"/>
  </vehicle>
  <vehicle id="105" depart="1050.00" type="veh_aggressive">
    <route edges="-22.0.00 -4.0.00 -18.0.00 12.0.00 23.0.00 22.0.00"/>
  </vehicle>
  <vehicle id="106" depart="1060.00" type="veh_aggressive">
    <route edges="-8.0.00 -1.0.00 -2.0.00 -21.0.00 -22.0.00 -23.0.00 -24.0.00 -6.0.00"/>
  </vehicle>
  <vehicle id="107" depart="1070.00" type="veh_aggressive">
    <route edges="7.0.00 19.0.00 18.0.00 17.0.00 10.0.00 9.0.00"/>
  </vehicle>
  <vehicle id="108" depart="1080.00" type="veh_aggressive">
    <route edges="10.0.00 9.0.00 -22.0.00 -23.0.00 -24.0.00 -6.0.00 19.0.00"/>
  </vehicle>
  <vehicle id="109" depart="1090.00" type="veh_aggressive">
    <route edges="-18.0.00 12.0.00 23.0.00 22.0.00 21.0.00 2.0.00 -25.0.00 9.0.00 -22.0.00 -23.0.00"/>
  </vehicle>
  <vehicle id="110" depart="1100.00" type="veh_aggressive">
    <route edges="7.0.00 19.0.00 12.0.00"/>
  </vehicle>
  <vehicle id="111" depart="1110.00" type="veh_aggressive">
    <route edges="1.0.00 -16.0.00 10.0.00 9.0.00 21.0.00 2.0.00"/>
  </vehicle>
  <vehicle id="112" depart="1120.00" type="veh_aggressive">
    <route edges="-12.0.00 18.0.00 17.0.00 16.0.00 0.0.00 -14.0.00 7.0.00 19.0.00 12.0.00"/>
  </vehicle>
  <vehicle id="113" depart="1130.00" type="veh_aggressive">
    <route edges="0.0.00 -14.0.00 7.0.00 19.0.00 18.0.00 17.0.00 10.0.00 25.0.00"/>
  </vehicle>
  <vehicle id="114" depart="1140.00" type="veh_aggressive">
    <route edges="-18.0.00 12.0.00 23.0.00 22.0.00 21.0.00 2.0.00 1.0.00 0.0.00 -14.0.00 7.0.00"/>
  </vehicle>
  <vehicle id="115" depart="1150.00" type="veh_aggressive">
    <route edges="-14.0.00 7.0.00 6.0.00 24.0.00 -12.0.00 -19.0.00"/>
  </vehicle>
  <vehicle id="116" depart="1160.00" type="veh_aggressive">
    <route edges="12.0.00 -24.0.00 -6.0.00 19.0.00 18.0.00"/>
  </vehicle>
  <vehicle id="117" depart="1170.00" type="veh_aggressive">
    <route edges="-21.0.00 -9.0.00 25.0.00 1.0.00 -16.0.00"/>
  </vehicle>
  <vehicle id="118" depart="1180.00" type="veh_aggressive">
    <route edges="4.0.00 22.0.00 -9.0.00 25.0.00 -2.0.00 -21.0.00"/>
  </vehicle>
  <vehicle id="119" depart="1190.00" type="veh_aggressive">
    <route edges="12.0.00 -24.0.00 -6.0.00 -7.0.00 14.0.00"/>
  </vehicle>
  <vehicle id="120" depart="1200.00" type="veh_aggressive">
    <route edges="-6.0.00 19.0.00 12.0.00"/>
  </vehicle>
  <vehicle id="121" depart="1210.00" type="veh_aggressive">
    <route edges="0.0.00 -14.0.00 7.0.00 6.0.00"/>
  </vehicle>