<?xml version='1.0' encoding='utf-8'?>
<routes xmlns:xsi="http://www.w3.org/2001/XMLSchema-instance" xsi:noNamespaceSchemaLocation="http://sumo.dlr.de/xsd/routes_file.xsd">


<vType id="v_aggressive4" carFollowModel="EIDM" laneChangeModel="SL2015" minGap="0.66" accel="3.87" decel="4.58" emergencyDecel="7.58" startupDelay="0.7" tau="2.16" maxSpeed="61.55" speedFactor="0.87" ccoolness="0.37" sigmaleader="0.42" sigmagap="0.42" sigmaerror="0.42" jerkmax="5.16" epsilonacc="1.79" taccmax="2.16" lcStrategic="4.16" lcCooperative="0.37" lcSpeedGain="4.16" lcKeepRight="2.16" lcOvertakeRight="0.62" lcSpeedGainLookahead="2.16" lcOvertakeDeltaSpeedFactor="0.86" lcPushy="0.67" lcAssertive="2.16" lcImpatience="0.67" lcTimeToImpatience="7.89" lcLaneDiscipline="2.16" lcSigma="0.42" lcAccelLat="3.16" probability="0.2">
		<param key="device.rerouting.probability" value="1.0" />
		<param key="device.rerouting.adaptation-steps" value="18" />
		<param key="device.rerouting.adaptation-interval" value="10" />
	</vType>
<vType id="v_aggressive3" carFollowModel="EIDM" laneChangeModel="SL2015" minGap="0.66" accel="3.87" decel="4.58" emergencyDecel="7.58" startupDelay="0.7" tau="2.16" maxSpeed="61.55" speedFactor="0.87" ccoolness="0.37" sigmaleader="0.42" sigmagap="0.42" sigmaerror="0.42" jerkmax="5.16" epsilonacc="1.79" taccmax="2.16" lcStrategic="4.16" lcCooperative="0.37" lcSpeedGain="4.16" lcKeepRight="2.16" lcOvertakeRight="0.62" lcSpeedGainLookahead="2.16" lcOvertakeDeltaSpeedFactor="0.86" lcPushy="0.67" lcAssertive="2.16" lcImpatience="0.67" lcTimeToImpatience="7.89" lcLaneDiscipline="2.16" lcSigma="0.42" lcAccelLat="3.16" probability="0.2">
		<param key="device.rerouting.probability" value="1.0" />
		<param key="device.rerouting.adaptation-steps" value="18" />
		<param key="device.rerouting.adaptation-interval" value="10" />
	</vType>
	<vType id="v_aggressive2" carFollowModel="EIDM" laneChangeModel="SL2015" minGap="0.66" accel="3.87" decel="4.58" emergencyDecel="7.58" startupDelay="0.7" tau="2.16" maxSpeed="61.55" speedFactor="0.87" ccoolness="0.37" sigmaleader="0.42" sigmagap="0.42" sigmaerror="0.42" jerkmax="5.16" epsilonacc="1.79" taccmax="2.16" lcStrategic="4.16" lcCooperative="0.37" lcSpeedGain="4.16" lcKeepRight="2.16" lcOvertakeRight="0.62" lcSpeedGainLookahead="2.16" lcOvertakeDeltaSpeedFactor="0.86" lcPushy="0.67" lcAssertive="2.16" lcImpatience="0.67" lcTimeToImpatience="7.89" lcLaneDiscipline="2.16" lcSigma="0.42" lcAccelLat="3.16" probability="0.2">
		<param key="device.rerouting.probability" value="1.0" />
		<param key="device.rerouting.adaptation-steps" value="18" />
		<param key="device.rerouting.adaptation-interval" value="10" />
	</vType>
	<vType id="v_aggressive1" carFollowModel="EIDM" laneChangeModel="SL2015" minGap="0.66" accel="3.87" decel="4.58" emergencyDecel="7.58" startupDelay="0.7" tau="2.16" maxSpeed="61.55" speedFactor="0.87" ccoolness="0.37" sigmaleader="0.42" sigmagap="0.42" sigmaerror="0.42" jerkmax="5.16" epsilonacc="1.79" taccmax="2.16" lcStrategic="4.16" lcCooperative="0.37" lcSpeedGain="4.16" lcKeepRight="2.16" lcOvertakeRight="0.62" lcSpeedGainLookahead="2.16" lcOvertakeDeltaSpeedFactor="0.86" lcPushy="0.67" lcAssertive="2.16" lcImpatience="0.67" lcTimeToImpatience="7.89" lcLaneDiscipline="2.16" lcSigma="0.42" lcAccelLat="3.16" probability="0.2">
		<param key="device.rerouting.probability" value="1.0" />
		<param key="device.rerouting.adaptation-steps" value="18" />
		<param key="device.rerouting.adaptation-interval" value="10" />
	</vType>
	<vType id="v_aggressive0" carFollowModel="EIDM" laneChangeModel="SL2015" minGap="0.66" accel="3.87" decel="4.58" emergencyDecel="7.58" startupDelay="0.7" tau="2.16" maxSpeed="61.55" speedFactor="0.87" ccoolness="0.37" sigmaleader="0.42" sigmagap="0.42" sigmaerror="0.42" jerkmax="5.16" epsilonacc="1.79" taccmax="2.16" lcStrategic="4.16" lcCooperative="0.37" lcSpeedGain="4.16" lcKeepRight="2.16" lcOvertakeRight="0.62" lcSpeedGainLookahead="2.16" lcOvertakeDeltaSpeedFactor="0.86" lcPushy="0.67" lcAssertive="2.16" lcImpatience="0.67" lcTimeToImpatience="7.89" lcLaneDiscipline="2.16" lcSigma="0.42" lcAccelLat="3.16" probability="0.2">
		<param key="device.rerouting.probability" value="1.0" />
		<param key="device.rerouting.adaptation-steps" value="18" />
		<param key="device.rerouting.adaptation-interval" value="10" />
	</vType>
	<vType id="v_normal4" carFollowModel="EIDM" laneChangeModel="SL2015" minGap="1.08" accel="2.37" decel="3.16" emergencyDecel="6.16" startupDelay="1.08" tau="3.16" maxSpeed="41.55" speedFactor="0.82" ccoolness="0.67" sigmaleader="0.22" sigmagap="0.22" sigmaerror="0.22" jerkmax="3.16" epsilonacc="1.08" taccmax="3.16" lcStrategic="2.16" lcCooperative="0.82" lcSpeedGain="2.16" lcKeepRight="3.73" lcOvertakeRight="0.22" lcSpeedGainLookahead="3.16" lcOvertakeDeltaSpeedFactor="0.67" lcPushy="0.37" lcAssertive="3.73" lcImpatience="0.37" lcTimeToImpatience="15.78" lcLaneDiscipline="3.73" lcSigma="0.22" lcAccelLat="1.58" probability="0.2">
		<param key="device.rerouting.probability" value="1.0" />
		<param key="device.rerouting.adaptation-steps" value="18" />
		<param key="device.rerouting.adaptation-interval" value="10" />
	</vType>
<vType id="v_normal3" carFollowModel="EIDM" laneChangeModel="SL2015" minGap="1.08" accel="2.37" decel="3.16" emergencyDecel="6.16" startupDelay="1.08" tau="3.16" maxSpeed="41.55" speedFactor="0.82" ccoolness="0.67" sigmaleader="0.22" sigmagap="0.22" sigmaerror="0.22" jerkmax="3.16" epsilonacc="1.08" taccmax="3.16" lcStrategic="2.16" lcCooperative="0.82" lcSpeedGain="2.16" lcKeepRight="3.73" lcOvertakeRight="0.22" lcSpeedGainLookahead="3.16" lcOvertakeDeltaSpeedFactor="0.67" lcPushy="0.37" lcAssertive="3.73" lcImpatience="0.37" lcTimeToImpatience="15.78" lcLaneDiscipline="3.73" lcSigma="0.22" lcAccelLat="1.58" probability="0.2">
		<param key="device.rerouting.probability" value="1.0" />
		<param key="device.rerouting.adaptation-steps" value="18" />
		<param key="device.rerouting.adaptation-interval" value="10" />
	</vType>
	<vType id="v_normal2" carFollowModel="EIDM" laneChangeModel="SL2015" minGap="1.08" accel="2.37" decel="3.16" emergencyDecel="6.16" startupDelay="1.08" tau="3.16" maxSpeed="41.55" speedFactor="0.82" ccoolness="0.67" sigmaleader="0.22" sigmagap="0.22" sigmaerror="0.22" jerkmax="3.16" epsilonacc="1.08" taccmax="3.16" lcStrategic="2.16" lcCooperative="0.82" lcSpeedGain="2.16" lcKeepRight="3.73" lcOvertakeRight="0.22" lcSpeedGainLookahead="3.16" lcOvertakeDeltaSpeedFactor="0.67" lcPushy="0.37" lcAssertive="3.73" lcImpatience="0.37" lcTimeToImpatience="15.78" lcLaneDiscipline="3.73" lcSigma="0.22" lcAccelLat="1.58" probability="0.2">
		<param key="device.rerouting.probability" value="1.0" />
		<param key="device.rerouting.adaptation-steps" value="18" />
		<param key="device.rerouting.adaptation-interval" value="10" />
	</vType>
	<vType id="v_normal1" carFollowModel="EIDM" laneChangeModel="SL2015" minGap="1.08" accel="2.37" decel="3.16" emergencyDecel="6.16" startupDelay="1.08" tau="3.16" maxSpeed="41.55" speedFactor="0.82" ccoolness="0.67" sigmaleader="0.22" sigmagap="0.22" sigmaerror="0.22" jerkmax="3.16" epsilonacc="1.08" taccmax="3.16" lcStrategic="2.16" lcCooperative="0.82" lcSpeedGain="2.16" lcKeepRight="3.73" lcOvertakeRight="0.22" lcSpeedGainLookahead="3.16" lcOvertakeDeltaSpeedFactor="0.67" lcPushy="0.37" lcAssertive="3.73" lcImpatience="0.37" lcTimeToImpatience="15.78" lcLaneDiscipline="3.73" lcSigma="0.22" lcAccelLat="1.58" probability="0.2">
		<param key="device.rerouting.probability" value="1.0" />
		<param key="device.rerouting.adaptation-steps" value="18" />
		<param key="device.rerouting.adaptation-interval" value="10" />
	</vType>
	<vType id="v_normal0" carFollowModel="EIDM" laneChangeModel="SL2015" minGap="1.08" accel="2.37" decel="3.16" emergencyDecel="6.16" startupDelay="1.08" tau="3.16" maxSpeed="41.55" speedFactor="0.82" ccoolness="0.67" sigmaleader="0.22" sigmagap="0.22" sigmaerror="0.22" jerkmax="3.16" epsilonacc="1.08" taccmax="3.16" lcStrategic="2.16" lcCooperative="0.82" lcSpeedGain="2.16" lcKeepRight="3.73" lcOvertakeRight="0.22" lcSpeedGainLookahead="3.16" lcOvertakeDeltaSpeedFactor="0.67" lcPushy="0.37" lcAssertive="3.73" lcImpatience="0.37" lcTimeToImpatience="15.78" lcLaneDiscipline="3.73" lcSigma="0.22" lcAccelLat="1.58" probability="0.2">
		<param key="device.rerouting.probability" value="1.0" />
		<param key="device.rerouting.adaptation-steps" value="18" />
		<param key="device.rerouting.adaptation-interval" value="10" />
	</vType>
	<trip id="veh0" type="v_aggressive3" depart="0" from="25.0.00" to="25.0.00">
	<stop edge="-7.0.00" duration="10" />
	<stop edge="25.0.00" duration="20" />
	<stop edge="-43.0.00" duration="10" />
	<stop edge="25.0.00" duration="10" />
	<stop edge="-52.0.00" duration="10" />
	<stop edge="-43.0.00" duration="10" />
	<stop edge="-30.0.00" duration="10" />
	<stop edge="35.0.00" duration="10" />
	<stop edge="25.0.00" duration="10" />
	<stop edge="-7.0.00" duration="10" />
	<stop edge="51.0.00" duration="10" />
	<stop edge="25.0.00" duration="10" />
	<stop edge="-43.0.00" duration="10" />
</trip>
</routes>