<?xml version="1.0" ?>
<routes xmlns:xsi="http://www.w3.org/2001/XMLSchema-instance" xsi:noNamespaceSchemaLocation="http://sumo.dlr.de/xsd/routes_file.xsd">
  <vType id="veh_aggressive1" carFollowModel="EIDM" laneChangeModel="SL2015" minGap="2.66" accel="3.66" decel="5.66" emergencyDecel="9.66" startupDelay="1.66" tau="2.66" maxSpeed="51.55" speedFactor="0.85" ccoolness="0.87" sigmaleader="0.22" sigmagap="0.22" sigmaerror="0.47" jerkmax="15.78" epsilonacc="2.66" taccmax="2.16" lcStrategic="3.31" lcCooperative="0.37" lcSpeedGain="3.31" lcKeepRight="0.58" lcOvertakeRight="0.56" lcSpeedGainLookahead="2.16" lcOvertakeDeltaSpeedFactor="0.73" lcPushy="0.79" lcAssertive="7.89" lcImpatience="0.79" lcTimeToImpatience="3.73" lcLaneDiscipline="0.58" lcSigma="0.37" lcAccelLat="3.31" probability="0.5">
    <param key="device.rerouting.probability" value="1.0"/>
    <param key="device.rerouting.adaptation-steps" value="18"/>
    <param key="device.rerouting.adaptation-interval" value="10"/>
  </vType>
  <vType id="veh_aggressive0" carFollowModel="EIDM" laneChangeModel="SL2015" minGap="2.66" accel="3.66" decel="5.66" emergencyDecel="9.66" startupDelay="1.66" tau="2.66" maxSpeed="51.55" speedFactor="0.85" ccoolness="0.87" sigmaleader="0.22" sigmagap="0.22" sigmaerror="0.47" jerkmax="15.78" epsilonacc="2.66" taccmax="2.16" lcStrategic="3.31" lcCooperative="0.37" lcSpeedGain="3.31" lcKeepRight="0.58" lcOvertakeRight="0.56" lcSpeedGainLookahead="2.16" lcOvertakeDeltaSpeedFactor="0.73" lcPushy="0.79" lcAssertive="7.89" lcImpatience="0.79" lcTimeToImpatience="3.73" lcLaneDiscipline="0.58" lcSigma="0.37" lcAccelLat="3.31" probability="0.5">
    <param key="device.rerouting.probability" value="1.0"/>
    <param key="device.rerouting.adaptation-steps" value="18"/>
    <param key="device.rerouting.adaptation-interval" value="10"/>
  </vType>
  <vType id="veh_normal1" carFollowModel="EIDM" laneChangeModel="SL2015" minGap="3.66" accel="2.08" decel="3.66" emergencyDecel="6.66" startupDelay="2.66" tau="3.66" maxSpeed="33.67" speedFactor="0.77" ccoolness="0.57" sigmaleader="0.37" sigmagap="0.37" sigmaerror="0.22" jerkmax="7.89" epsilonacc="1.08" taccmax="3.73" lcStrategic="0.58" lcCooperative="0.67" lcSpeedGain="0.58" lcKeepRight="3.31" lcOvertakeRight="0.06" lcSpeedGainLookahead="3.73" lcOvertakeDeltaSpeedFactor="0.33" lcPushy="0.29" lcAssertive="3.31" lcImpatience="0.29" lcTimeToImpatience="15.78" lcLaneDiscipline="3.31" lcSigma="0.12" lcAccelLat="0.58" probability="0.5">
    <param key="device.rerouting.probability" value="1.0"/>
    <param key="device.rerouting.adaptation-steps" value="18"/>
    <param key="device.rerouting.adaptation-interval" value="10"/>
  </vType>
  <vType id="veh_normal0" carFollowModel="EIDM" laneChangeModel="SL2015" minGap="3.66" accel="2.08" decel="3.66" emergencyDecel="6.66" startupDelay="2.66" tau="3.66" maxSpeed="33.67" speedFactor="0.77" ccoolness="0.57" sigmaleader="0.37" sigmagap="0.37" sigmaerror="0.22" jerkmax="7.89" epsilonacc="1.08" taccmax="3.73" lcStrategic="0.58" lcCooperative="0.67" lcSpeedGain="0.58" lcKeepRight="3.31" lcOvertakeRight="0.06" lcSpeedGainLookahead="3.73" lcOvertakeDeltaSpeedFactor="0.33" lcPushy="0.29" lcAssertive="3.31" lcImpatience="0.29" lcTimeToImpatience="15.78" lcLaneDiscipline="3.31" lcSigma="0.12" lcAccelLat="0.58" probability="0.5">
    <param key="device.rerouting.probability" value="1.0"/>
    <param key="device.rerouting.adaptation-steps" value="18"/>
    <param key="device.rerouting.adaptation-interval" value="10"/>
  </vType>
  <vType id="veh_aggressive" carFollowModel="EIDM" laneChangeModel="SL2015" maxSpeed="19.444444444444443" accel="3.0" decel="5.0" speedFactor="1.2" emergencyDecel="10.0" vClass="passenger" probability="1.0">
    <param key="device.rerouting.probability" value="1.0"/>
    <param key="device.rerouting.adaptation-steps" value="18"/>
    <param key="device.rerouting.adaptation-interval" value="10"/>
  </vType>
  <vType id="veh_normal" carFollowModel="EIDM" laneChangeModel="SL2015" maxSpeed="13.88888888888889" accel="2.5" decel="4.5" speedFactor="1.0" emergencyDecel="9.0" vClass="passenger" probability="1.0">
    <param key="device.rerouting.probability" value="1.0"/>
    <param key="device.rerouting.adaptation-steps" value="18"/>
    <param key="device.rerouting.adaptation-interval" value="10"/>
  </vType>
  <trip id="veh_0_aggressive" type="veh_aggressive1" depart="0" from="25.0.00" to="25.0.00">
    <stop edge="-7.0.00" duration="10"/>
    <stop edge="25.0.00" duration="20"/>
    <stop edge="-43.0.00" duration="10"/>
    <stop edge="25.0.00" duration="10"/>
    <stop edge="-52.0.00" duration="10"/>
    <stop edge="-43.0.00" duration="10"/>
    <stop edge="-30.0.00" duration="10"/>
    <stop edge="35.0.00" duration="10"/>
    <stop edge="25.0.00" duration="10"/>
    <stop edge="-7.0.00" duration="10"/>
    <stop edge="51.0.00" duration="10"/>
    <stop edge="25.0.00" duration="10"/>
    <stop edge="-43.0.00" duration="10"/>
  </trip>
  <vehicle id="0" depart="0.00" type="veh_normal">
    <route edges="20.0.00 48.0.00 -32.0.00 -6.0.00 -7.0.00 -8.0.00 -9.0.00 -10.0.00"/>
  </vehicle>
  <vehicle id="1" depart="10.00" type="veh_normal">
    <route edges="-36.0.00 -27.0.00 -28.0.00"/>
  </vehicle>
  <vehicle id="2" depart="20.00" type="veh_normal">
    <route edges="28.0.00 27.0.00 -38.0.00 -13.0.00 -14.0.00 -16.0.00 -26.0.00 -21.0.00 -41.0.00 -42.0.00 23.0.00"/>
  </vehicle>
  <vehicle id="3" depart="30.00" type="veh_normal">
    <route edges="45.0.00 8.0.00 7.0.00 6.0.00 -16.0.00"/>
  </vehicle>
  <vehicle id="4" depart="40.00" type="veh_normal">
    <route edges="-48.0.00 -20.0.00 -28.0.00 -29.0.00 -0.0.00 -1.0.00 -2.0.00 -44.0.00 -9.0.00 -10.0.00"/>
  </vehicle>
  <vehicle id="5" depart="50.00" type="veh_normal">
    <route edges="-28.0.00 -29.0.00 25.0.00 -6.0.00 -7.0.00 -8.0.00"/>
  </vehicle>
  <vehicle id="6" depart="60.00" type="veh_normal">
    <route edges="-10.0.00 3.0.00 2.0.00 1.0.00 0.0.00 -26.0.00"/>
  </vehicle>
  <vehicle id="7" depart="70.00" type="veh_normal">
    <route edges="20.0.00 48.0.00 -32.0.00 -6.0.00 -7.0.00 -5.0.00 1.0.00"/>
  </vehicle>
  <vehicle id="8" depart="80.00" type="veh_normal">
    <route edges="-28.0.00 -29.0.00 25.0.00 15.0.00"/>
  </vehicle>
  <vehicle id="9" depart="90.00" type="veh_normal">
    <route edges="39.0.00 31.0.00 -29.0.00 -0.0.00"/>
  </vehicle>
  <vehicle id="10" depart="100.00" type="veh_normal">
    <route edges="39.0.00 -32.0.00 -6.0.00 -7.0.00 -8.0.00 -9.0.00 -10.0.00 -11.0.00 24.0.00"/>
  </vehicle>
  <vehicle id="11" depart="110.00" type="veh_normal">
    <route edges="-42.0.00 -43.0.00 2.0.00 1.0.00 -18.0.00 -22.0.00"/>
  </vehicle>
  <vehicle id="12" depart="120.00" type="veh_normal">
    <route edges="6.0.00 -16.0.00 -26.0.00 -21.0.00 -41.0.00"/>
  </vehicle>
  <vehicle id="13" depart="130.00" type="veh_normal">
    <route edges="-18.0.00"/>
  </vehicle>
  <vehicle id="14" depart="140.00" type="veh_normal">
    <route edges="41.0.00 40.0.00 17.0.00"/>
  </vehicle>
  <vehicle id="15" depart="150.00" type="veh_normal">
    <route edges="39.0.00 31.0.00 28.0.00"/>
  </vehicle>
  <vehicle id="16" depart="160.00" type="veh_normal">
    <route edges="0.0.00 -26.0.00 -21.0.00 40.0.00 -1.0.00 49.0.00 7.0.00"/>
  </vehicle>
  <vehicle id="17" depart="170.00" type="veh_normal">
    <route edges="-45.0.00 -4.0.00 -5.0.00 -2.0.00 -3.0.00 10.0.00"/>
  </vehicle>
  <vehicle id="18" depart="180.00" type="veh_normal">
    <route edges="40.0.00 0.0.00 39.0.00 -48.0.00 19.0.00"/>
  </vehicle>
  <vehicle id="19" depart="190.00" type="veh_normal">
    <route edges="42.0.00 41.0.00 21.0.00 -29.0.00 25.0.00 15.0.00 13.0.00"/>
  </vehicle>
  <vehicle id="20" depart="200.00" type="veh_normal">
    <route edges="25.0.00 -6.0.00 -7.0.00 -8.0.00 -9.0.00 -10.0.00 -11.0.00"/>
  </vehicle>
  <vehicle id="21" depart="210.00" type="veh_normal">
    <route edges="-29.0.00 39.0.00 31.0.00 28.0.00 27.0.00 -38.0.00"/>
  </vehicle>
  <vehicle id="22" depart="220.00" type="veh_normal">
    <route edges="-16.0.00 39.0.00 31.0.00 -29.0.00"/>
  </vehicle>
  <vehicle id="23" depart="230.00" type="veh_normal">
    <route edges="-19.0.00 48.0.00 -32.0.00 15.0.00 13.0.00 -36.0.00"/>
  </vehicle>
  <vehicle id="24" depart="240.00" type="veh_normal">
    <route edges="2.0.00 -50.0.00 -23.0.00 -43.0.00 -44.0.00"/>
  </vehicle>
  <vehicle id="25" depart="250.00" type="veh_normal">
    <route edges="-44.0.00 8.0.00 7.0.00 6.0.00 15.0.00 13.0.00 35.0.00 -27.0.00"/>
  </vehicle>
  <vehicle id="26" depart="260.00" type="veh_normal">
    <route edges="-32.0.00 -16.0.00 -0.0.00 -1.0.00 49.0.00"/>
  </vehicle>
  <vehicle id="27" depart="270.00" type="veh_normal">
    <route edges="20.0.00 48.0.00 -39.0.00 -0.0.00 17.0.00"/>
  </vehicle>
  <vehicle id="28" depart="280.00" type="veh_normal">
    <route edges="-23.0.00 42.0.00 41.0.00 21.0.00 28.0.00"/>
  </vehicle>
  <vehicle id="29" depart="290.00" type="veh_normal">
    <route edges="-23.0.00 -43.0.00 -44.0.00 -45.0.00"/>
  </vehicle>
  <vehicle id="30" depart="300.00" type="veh_normal">
    <route edges="9.0.00 8.0.00 7.0.00 6.0.00 15.0.00 13.0.00 35.0.00 -27.0.00 20.0.00"/>
  </vehicle>
  <vehicle id="31" depart="310.00" type="veh_normal">
    <route edges="10.0.00 9.0.00 44.0.00 43.0.00 23.0.00"/>
  </vehicle>
  <vehicle id="32" depart="320.00" type="veh_normal">
    <route edges="41.0.00 21.0.00 -29.0.00 25.0.00 15.0.00 13.0.00 35.0.00"/>
  </vehicle>
  <vehicle id="33" depart="330.00" type="veh_normal">
    <route edges="-29.0.00 -0.0.00 -1.0.00 -2.0.00 -44.0.00 -9.0.00 -10.0.00"/>
  </vehicle>
  <vehicle id="34" depart="340.00" type="veh_normal">
    <route edges="-4.0.00 -5.0.00 1.0.00 0.0.00 39.0.00 -32.0.00"/>
  </vehicle>
  <vehicle id="35" depart="350.00" type="veh_normal">
    <route edges="-27.0.00 -28.0.00 -21.0.00 -22.0.00 51.0.00"/>
  </vehicle>
  <vehicle id="36" depart="360.00" type="veh_normal">
    <route edges="44.0.00 -3.0.00 10.0.00 9.0.00 -45.0.00 -4.0.00"/>
  </vehicle>
  <vehicle id="37" depart="370.00" type="veh_normal">
    <route edges="21.0.00 -29.0.00 -0.0.00 -1.0.00 49.0.00 4.0.00 -46.0.00"/>
  </vehicle>
  <vehicle id="38" depart="380.00" type="veh_normal">
    <route edges="48.0.00 31.0.00 -21.0.00 -41.0.00 -51.0.00"/>
  </vehicle>
  <vehicle id="39" depart="390.00" type="veh_normal">
    <route edges="-32.0.00 -6.0.00 -7.0.00 -5.0.00 -2.0.00 -3.0.00"/>
  </vehicle>
  <vehicle id="40" depart="400.00" type="veh_normal">
    <route edges="10.0.00 9.0.00 44.0.00 2.0.00 1.0.00 0.0.00 39.0.00 -32.0.00"/>
  </vehicle>
  <vehicle id="41" depart="410.00" type="veh_normal">
    <route edges="13.0.00 35.0.00 -27.0.00 -28.0.00 -29.0.00 -0.0.00 17.0.00 46.0.00 45.0.00"/>
  </vehicle>
  <vehicle id="42" depart="420.00" type="veh_normal">
    <route edges="-46.0.00 6.0.00 33.0.00 -48.0.00 -20.0.00 -28.0.00"/>
  </vehicle>
  <vehicle id="43" depart="430.00" type="veh_normal">
    <route edges="9.0.00 -45.0.00 -4.0.00 -8.0.00"/>
  </vehicle>
  <vehicle id="44" depart="440.00" type="veh_normal">
    <route edges="-18.0.00 -22.0.00 -52.0.00 -2.0.00 -3.0.00 -11.0.00"/>
  </vehicle>
  <vehicle id="45" depart="450.00" type="veh_normal">
    <route edges="-19.0.00 48.0.00 -32.0.00 -6.0.00 -7.0.00 -8.0.00 44.0.00 2.0.00"/>
  </vehicle>
  <vehicle id="46" depart="460.00" type="veh_normal">
    <route edges="37.0.00 -13.0.00 -14.0.00 33.0.00 -48.0.00"/>
  </vehicle>
  <vehicle id="47" depart="470.00" type="veh_normal">
    <route edges="-14.0.00 -6.0.00 -7.0.00 -8.0.00 -45.0.00"/>
  </vehicle>
  <vehicle id="48" depart="480.00" type="veh_normal">
    <route edges="9.0.00 44.0.00 2.0.00 1.0.00 0.0.00"/>
  </vehicle>
  <vehicle id="49" depart="490.00" type="veh_normal">
    <route edges="7.0.00 -47.0.00 -1.0.00 -2.0.00 43.0.00 42.0.00"/>
  </vehicle>
  <vehicle id="50" depart="500.00" type="veh_normal">
    <route edges="-0.0.00 -18.0.00 21.0.00 28.0.00 27.0.00"/>
  </vehicle>
  <vehicle id="51" depart="510.00" type="veh_normal">
    <route edges="23.0.00 -52.0.00 1.0.00 0.0.00"/>
  </vehicle>
  <vehicle id="52" depart="520.00" type="veh_normal">
    <route edges="-32.0.00 15.0.00 13.0.00 35.0.00 -27.0.00 20.0.00"/>
  </vehicle>
  <vehicle id="53" depart="530.00" type="veh_normal">
    <route edges="-19.0.00 48.0.00 -32.0.00 -6.0.00 -7.0.00 -5.0.00"/>
  </vehicle>
  <vehicle id="54" depart="540.00" type="veh_normal">
    <route edges="-51.0.00 -52.0.00 49.0.00 7.0.00 6.0.00"/>
  </vehicle>
  <vehicle id="55" depart="550.00" type="veh_normal">
    <route edges="44.0.00 2.0.00 1.0.00 0.0.00 39.0.00 -32.0.00"/>
  </vehicle>
  <vehicle id="56" depart="560.00" type="veh_normal">
    <route edges="-8.0.00 44.0.00 43.0.00 -24.0.00"/>
  </vehicle>
  <vehicle id="57" depart="570.00" type="veh_normal">
    <route edges="48.0.00 -39.0.00 -0.0.00 -1.0.00 -2.0.00 43.0.00"/>
  </vehicle>
  <vehicle id="58" depart="580.00" type="veh_normal">
    <route edges="-38.0.00 -36.0.00 -27.0.00 20.0.00"/>
  </vehicle>
  <vehicle id="59" depart="590.00" type="veh_normal">
    <route edges="17.0.00 6.0.00 -16.0.00 -26.0.00 -21.0.00 -22.0.00"/>
  </vehicle>
  <vehicle id="60" depart="600.00" type="veh_normal">
    <route edges="33.0.00 31.0.00 -21.0.00 -22.0.00 -52.0.00 1.0.00"/>
  </vehicle>
  <vehicle id="61" depart="610.00" type="veh_normal">
    <route edges="35.0.00 -27.0.00 -28.0.00 -21.0.00 40.0.00 0.0.00"/>
  </vehicle>
  <vehicle id="62" depart="620.00" type="veh_normal">
    <route edges="-0.0.00 17.0.00 46.0.00 -4.0.00"/>
  </vehicle>
  <vehicle id="63" depart="630.00" type="veh_normal">
    <route edges="-1.0.00 49.0.00"/>
  </vehicle>
  <vehicle id="64" depart="640.00" type="veh_normal">
    <route edges="44.0.00 2.0.00 -50.0.00 22.0.00 40.0.00"/>
  </vehicle>
  <vehicle id="65" depart="650.00" type="veh_normal">
    <route edges="-39.0.00 -26.0.00 28.0.00 27.0.00 -38.0.00 -13.0.00"/>
  </vehicle>
  <vehicle id="66" depart="660.00" type="veh_normal">
    <route edges="44.0.00 2.0.00 -50.0.00 51.0.00"/>
  </vehicle>
  <vehicle id="67" depart="670.00" type="veh_normal">
    <route edges="-16.0.00 39.0.00 -32.0.00 -6.0.00"/>
  </vehicle>
  <vehicle id="68" depart="680.00" type="veh_normal">
    <route edges="-14.0.00 33.0.00 31.0.00"/>
  </vehicle>
  <vehicle id="69" depart="690.00" type="veh_normal">
    <route edges="33.0.00 -48.0.00 -20.0.00"/>
  </vehicle>
  <vehicle id="70" depart="700.00" type="veh_normal">
    <route edges="-6.0.00 -7.0.00 -5.0.00 1.0.00"/>
  </vehicle>
  <vehicle id="71" depart="710.00" type="veh_normal">
    <route edges="-32.0.00 -6.0.00 -7.0.00 -8.0.00 44.0.00 43.0.00"/>
  </vehicle>
  <vehicle id="72" depart="720.00" type="veh_normal">
    <route edges="-48.0.00 19.0.00 13.0.00 35.0.00 -27.0.00"/>
  </vehicle>
  <vehicle id="73" depart="730.00" type="veh_normal">
    <route edges="1.0.00 0.0.00 -26.0.00 28.0.00"/>
  </vehicle>
  <vehicle id="74" depart="740.00" type="veh_normal">
    <route edges="-27.0.00 -28.0.00 -30.0.00 -39.0.00"/>
  </vehicle>
  <vehicle id="75" depart="750.00" type="veh_normal">
    <route edges="9.0.00 8.0.00 7.0.00 6.0.00 15.0.00 13.0.00 35.0.00 -27.0.00 20.0.00"/>
  </vehicle>
  <vehicle id="76" depart="760.00" type="veh_normal">
    <route edges="-50.0.00 -23.0.00 -43.0.00 -44.0.00 -9.0.00"/>
  </vehicle>
  <vehicle id="77" depart="770.00" type="veh_normal">
    <route edges="-2.0.00 -44.0.00 8.0.00 7.0.00 6.0.00 33.0.00 -48.0.00 -20.0.00 -28.0.00"/>
  </vehicle>
  <vehicle id="78" depart="780.00" type="veh_normal">
    <route edges="-42.0.00 -43.0.00 2.0.00 1.0.00 0.0.00 25.0.00 15.0.00"/>
  </vehicle>
  <vehicle id="79" depart="790.00" type="veh_normal">
    <route edges="-29.0.00 39.0.00 -48.0.00 -20.0.00 -28.0.00"/>
  </vehicle>
  <vehicle id="80" depart="800.00" type="veh_normal">
    <route edges="-14.0.00 -6.0.00 -7.0.00 -8.0.00 44.0.00 2.0.00"/>
  </vehicle>
  <vehicle id="81" depart="810.00" type="veh_normal">
    <route edges="-29.0.00 -0.0.00 17.0.00 46.0.00"/>
  </vehicle>
  <vehicle id="82" depart="820.00" type="veh_normal">
    <route edges="42.0.00 41.0.00 21.0.00 28.0.00 27.0.00 -38.0.00 -13.0.00 -14.0.00"/>
  </vehicle>
  <vehicle id="83" depart="830.00" type="veh_normal">
    <route edges="-3.0.00 -11.0.00 24.0.00 23.0.00 22.0.00"/>
  </vehicle>
  <vehicle id="84" depart="840.00" type="veh_normal">
    <route edges="-28.0.00 -30.0.00 -48.0.00 -20.0.00"/>
  </vehicle>
  <vehicle id="85" depart="850.00" type="veh_normal">
    <route edges="49.0.00 -8.0.00 44.0.00 43.0.00 -24.0.00 11.0.00"/>
  </vehicle>
  <vehicle id="86" depart="860.00" type="veh_normal">
    <route edges="-52.0.00 49.0.00 7.0.00 6.0.00 15.0.00 13.0.00 35.0.00"/>
  </vehicle>
  <vehicle id="87" depart="870.00" type="veh_normal">
    <route edges="39.0.00 -32.0.00 -16.0.00 -26.0.00"/>
  </vehicle>
  <vehicle id="88" depart="880.00" type="veh_normal">
    <route edges="-18.0.00 -22.0.00 -52.0.00 -2.0.00 -44.0.00 8.0.00 -5.0.00"/>
  </vehicle>
  <vehicle id="89" depart="890.00" type="veh_normal">
    <route edges="-48.0.00 -20.0.00 -28.0.00 -21.0.00 -22.0.00 -52.0.00"/>
  </vehicle>
  <vehicle id="90" depart="900.00" type="veh_normal">
    <route edges="28.0.00 27.0.00 -38.0.00 -13.0.00 -14.0.00 -6.0.00 -7.0.00 -5.0.00 -50.0.00 22.0.00"/>
  </vehicle>
  <vehicle id="91" depart="910.00" type="veh_normal">
    <route edges="8.0.00 7.0.00 -47.0.00 -18.0.00"/>
  </vehicle>
  <vehicle id="92" depart="920.00" type="veh_normal">
    <route edges="-47.0.00 -18.0.00 -41.0.00 -42.0.00"/>
  </vehicle>
  <vehicle id="93" depart="930.00" type="veh_normal">
    <route edges="42.0.00 -51.0.00 -52.0.00 -2.0.00 -3.0.00"/>
  </vehicle>
  <vehicle id="94" depart="940.00" type="veh_normal">
    <route edges="-26.0.00 -21.0.00 40.0.00 -1.0.00 -50.0.00"/>
  </vehicle>
  <vehicle id="95" depart="950.00" type="veh_normal">
    <route edges="-48.0.00 19.0.00 13.0.00 -36.0.00"/>
  </vehicle>
  <vehicle id="96" depart="960.00" type="veh_normal">
    <route edges="-3.0.00 10.0.00 9.0.00 8.0.00 7.0.00 6.0.00 15.0.00 -19.0.00 48.0.00"/>
  </vehicle>
  <vehicle id="97" depart="970.00" type="veh_normal">
    <route edges="-50.0.00 -23.0.00 42.0.00"/>
  </vehicle>
  <vehicle id="98" depart="980.00" type="veh_normal">
    <route edges="10.0.00 9.0.00 44.0.00 2.0.00 1.0.00 0.0.00 -26.0.00 28.0.00 27.0.00 -38.0.00 -13.0.00"/>
  </vehicle>
  <vehicle id="99" depart="990.00" type="veh_normal">
    <route edges="9.0.00 44.0.00 2.0.00 -50.0.00 22.0.00 40.0.00"/>
  </vehicle>
  <vehicle id="100" depart="1000.00" type="veh_aggressive">
    <route edges="7.0.00 -47.0.00 -1.0.00 49.0.00"/>
  </vehicle>
  <vehicle id="101" depart="1010.00" type="veh_aggressive">
    <route edges="41.0.00 -22.0.00 -23.0.00"/>
  </vehicle>
  <vehicle id="102" depart="1020.00" type="veh_aggressive">
    <route edges="-6.0.00 -47.0.00 0.0.00 39.0.00 -48.0.00 -20.0.00 -28.0.00"/>
  </vehicle>
  <vehicle id="103" depart="1030.00" type="veh_aggressive">
    <route edges="-47.0.00 0.0.00 -26.0.00 28.0.00 27.0.00 -38.0.00 -13.0.00"/>
  </vehicle>
  <vehicle id="104" depart="1040.00" type="veh_aggressive">
    <route edges="-45.0.00 -4.0.00 -5.0.00 -2.0.00 -44.0.00 8.0.00"/>
  </vehicle>
  <vehicle id="105" depart="1050.00" type="veh_aggressive">
    <route edges="-32.0.00 15.0.00 13.0.00 35.0.00"/>
  </vehicle>
  <vehicle id="106" depart="1060.00" type="veh_aggressive">
    <route edges="-51.0.00 22.0.00 21.0.00 -30.0.00 -48.0.00"/>
  </vehicle>
  <vehicle id="107" depart="1070.00" type="veh_aggressive">
    <route edges="6.0.00 -16.0.00 -0.0.00 -1.0.00 -2.0.00 -3.0.00 10.0.00 9.0.00"/>
  </vehicle>
  <vehicle id="108" depart="1080.00" type="veh_aggressive">
    <route edges="10.0.00 9.0.00 44.0.00 2.0.00 1.0.00 0.0.00 -26.0.00 28.0.00 27.0.00"/>
  </vehicle>
  <vehicle id="109" depart="1090.00" type="veh_aggressive">
    <route edges="-22.0.00 51.0.00 41.0.00 21.0.00 28.0.00 27.0.00 -38.0.00"/>
  </vehicle>
  <vehicle id="110" depart="1100.00" type="veh_aggressive">
    <route edges="7.0.00 6.0.00 15.0.00 13.0.00"/>
  </vehicle>
  <vehicle id="111" depart="1110.00" type="veh_aggressive">
    <route edges="1.0.00 -18.0.00 -22.0.00 -23.0.00 -24.0.00 11.0.00 3.0.00"/>
  </vehicle>
  <vehicle id="112" depart="1120.00" type="veh_aggressive">
    <route edges="-13.0.00 -14.0.00 33.0.00 -39.0.00 25.0.00 15.0.00 13.0.00"/>
  </vehicle>
  <vehicle id="113" depart="1130.00" type="veh_aggressive">
    <route edges="-8.0.00 44.0.00 43.0.00 42.0.00"/>
  </vehicle>
  <vehicle id="114" depart="1140.00" type="veh_aggressive">
    <route edges="-22.0.00 -52.0.00 49.0.00 7.0.00 6.0.00"/>
  </vehicle>
  <vehicle id="115" depart="1150.00" type="veh_aggressive">
    <route edges="-16.0.00 -0.0.00 -1.0.00 -2.0.00 43.0.00 -24.0.00"/>
  </vehicle>
  <vehicle id="116" depart="1160.00" type="veh_aggressive">
    <route edges="15.0.00 -19.0.00 48.0.00 31.0.00 -21.0.00 -41.0.00 -42.0.00 23.0.00"/>
  </vehicle>
  <vehicle id="117" depart="1170.00" type="veh_aggressive">
    <route edges="-29.0.00 -0.0.00 -1.0.00 -2.0.00"/>
  </vehicle>
  <vehicle id="118" depart="1180.00" type="veh_aggressive">
    <route edges="45.0.00 44.0.00 -3.0.00"/>
  </vehicle>
  <vehicle id="119" depart="1190.00" type="veh_aggressive">
    <route edges="15.0.00 -19.0.00 48.0.00 -39.0.00 25.0.00 33.0.00 -48.0.00 19.0.00"/>
  </vehicle>
  <vehicle id="120" depart="1200.00" type="veh_aggressive">
    <route edges="-48.0.00 19.0.00 13.0.00"/>
  </vehicle>
  <vehicle id="121" depart="1210.00" type="veh_aggressive">
    <route edges="-9.0.00 -10.0.00 3.0.00 2.0.00 49.0.00"/>
  </vehicle>
  <vehicle id="122" depart="1220.00" type="veh_aggressive">
    <route edges="-27.0.00 -28.0.00 -29.0.00 39.0.00 31.0.00 28.0.00 27.0.00"/>
  </vehicle>
  <vehicle id="123" depart="1230.00" type="veh_aggressive">
    <route edges="-3.0.00 10.0.00 9.0.00 -45.0.00 -46.0.00"/>
  </vehicle>
  <vehicle id="124" depart="1240.00" type="veh_aggressive">
    <route edges="22.0.00 21.0.00 28.0.00 27.0.00 -38.0.00"/>
  </vehicle>
  <vehicle id="125" depart="1250.00" type="veh_aggressive">
    <route edges="-4.0.00 7.0.00 6.0.00 33.0.00 31.0.00"/>
  </vehicle>
  <vehicle id="126" depart="1260.00" type="veh_aggressive">
    <route edges="-14.0.00 -16.0.00 -26.0.00 -21.0.00 -41.0.00 -51.0.00"/>
  </vehicle>
  <vehicle id="127" depart="1270.00" type="veh_aggressive">
    <route edges="9.0.00"/>
  </vehicle>
  <vehicle id="128" depart="1280.00" type="veh_aggressive">
    <route edges="-14.0.00 33.0.00 -48.0.00 -20.0.00 -28.0.00"/>
  </vehicle>
  <vehicle id="129" depart="1290.00" type="veh_aggressive">
    <route edges="-32.0.00 -16.0.00 -0.0.00 -1.0.00 49.0.00"/>
  </vehicle>
  <vehicle id="130" depart="1300.00" type="veh_aggressive">
    <route edges="44.0.00"/>
  </vehicle>
  <vehicle id="131" depart="1310.00" type="veh_aggressive">
    <route edges="-44.0.00 8.0.00 7.0.00 -47.0.00 -18.0.00 -22.0.00"/>
  </vehicle>
  <vehicle id="132" depart="1320.00" type="veh_aggressive">
    <route edges="40.0.00 0.0.00 25.0.00"/>
  </vehicle>
  <vehicle id="133" depart="1330.00" type="veh_aggressive">
    <route edges="17.0.00 46.0.00 45.0.00 8.0.00"/>
  </vehicle>
  <vehicle id="134" depart="1340.00" type="veh_aggressive">
    <route edges="21.0.00 -29.0.00 -0.0.00"/>
  </vehicle>
  <vehicle id="135" depart="1350.00" type="veh_aggressive">
    <route edges="4.0.00 -46.0.00 6.0.00 -16.0.00 -26.0.00 28.0.00 27.0.00 -38.0.00"/>
  </vehicle>
  <vehicle id="136" depart="1360.00" type="veh_aggressive">
    <route edges="22.0.00 -41.0.00 -42.0.00 23.0.00 51.0.00"/>
  </vehicle>
  <vehicle id="137" depart="1370.00" type="veh_aggressive">
    <route edges="-20.0.00 -28.0.00 -29.0.00 -0.0.00 -1.0.00 -2.0.00"/>
  </vehicle>
  <vehicle id="138" depart="1380.00" type="veh_aggressive">
    <route edges="-19.0.00 48.0.00 -39.0.00 -0.0.00 -1.0.00 -2.0.00 -3.0.00 10.0.00"/>
  </vehicle>
  <vehicle id="139" depart="1390.00" type="veh_aggressive">
    <route edges="-32.0.00 -16.0.00 -0.0.00 17.0.00"/>
  </vehicle>
  <vehicle id="140" depart="1400.00" type="veh_aggressive">
    <route edges="27.0.00 37.0.00 35.0.00 -27.0.00"/>
  </vehicle>
  <vehicle id="141" depart="1410.00" type="veh_aggressive">
    <route edges="2.0.00 1.0.00 0.0.00 39.0.00 -32.0.00"/>
  </vehicle>
  <vehicle id="142" depart="1420.00" type="veh_aggressive">
    <route edges="-7.0.00 -5.0.00 1.0.00 17.0.00 46.0.00"/>
  </vehicle>
  <vehicle id="143" depart="1430.00" type="veh_aggressive">
    <route edges="41.0.00 -22.0.00 -52.0.00 1.0.00 -18.0.00"/>
  </vehicle>
  <vehicle id="144" depart="1440.00" type="veh_aggressive">
    <route edges="-48.0.00 19.0.00 13.0.00 -36.0.00"/>
  </vehicle>
  <vehicle id="145" depart="1450.00" type="veh_aggressive">
    <route edges="-0.0.00 17.0.00 6.0.00 33.0.00"/>
  </vehicle>
  <vehicle id="146" depart="1460.00" type="veh_aggressive">
    <route edges="2.0.00 1.0.00 0.0.00 -26.0.00 -30.0.00"/>
  </vehicle>
  <vehicle id="147" depart="1470.00" type="veh_aggressive">
    <route edges="3.0.00 43.0.00 -24.0.00 11.0.00 10.0.00"/>
  </vehicle>
  <vehicle id="148" depart="1480.00" type="veh_aggressive">
    <route edges="-5.0.00 1.0.00 17.0.00 6.0.00 -16.0.00 -0.0.00"/>
  </vehicle>
  <vehicle id="149" depart="1490.00" type="veh_aggressive">
    <route edges="-16.0.00 -0.0.00 -1.0.00 49.0.00 -8.0.00 44.0.00"/>
  </vehicle>
  <vehicle id="150" depart="1500.00" type="veh_aggressive">
    <route edges="46.0.00 -4.0.00 -5.0.00 1.0.00"/>
  </vehicle>
  <vehicle id="151" depart="1510.00" type="veh_aggressive">
    <route edges="40.0.00 0.0.00 25.0.00 15.0.00 13.0.00"/>
  </vehicle>
  <vehicle id="152" depart="1520.00" type="veh_aggressive">
    <route edges="-21.0.00 40.0.00 0.0.00 39.0.00 -48.0.00 -20.0.00"/>
  </vehicle>
  <vehicle id="153" depart="1530.00" type="veh_aggressive">
    <route edges="-39.0.00 -0.0.00 17.0.00 46.0.00 45.0.00"/>
  </vehicle>
  <vehicle id="154" depart="1540.00" type="veh_aggressive">
    <route edges="37.0.00 -13.0.00 -14.0.00 -16.0.00 -0.0.00 -1.0.00 -2.0.00 43.0.00 42.0.00"/>
  </vehicle>
  <vehicle id="155" depart="1550.00" type="veh_aggressive">
    <route edges="45.0.00 8.0.00 7.0.00 6.0.00 15.0.00 13.0.00 35.0.00 -27.0.00"/>
  </vehicle>
  <vehicle id="156" depart="1560.00" type="veh_aggressive">
    <route edges="-3.0.00 10.0.00 9.0.00 8.0.00 7.0.00 6.0.00 15.0.00 -19.0.00"/>
  </vehicle>
  <vehicle id="157" depart="1570.00" type="veh_aggressive">
    <route edges="35.0.00 -27.0.00 -28.0.00 -29.0.00 25.0.00 -6.0.00 -7.0.00 -8.0.00 44.0.00"/>
  </vehicle>
  <vehicle id="158" depart="1580.00" type="veh_aggressive">
    <route edges="-47.0.00 0.0.00 39.0.00 -48.0.00 19.0.00"/>
  </vehicle>
  <vehicle id="159" depart="1590.00" type="veh_aggressive">
    <route edges="-22.0.00 -52.0.00 49.0.00"/>
  </vehicle>
  <vehicle id="160" depart="1600.00" type="veh_aggressive">
    <route edges="43.0.00 -24.0.00 11.0.00 10.0.00 9.0.00 8.0.00"/>
  </vehicle>
  <vehicle id="161" depart="1610.00" type="veh_aggressive">
    <route edges="39.0.00 -32.0.00 -6.0.00 -7.0.00 -8.0.00 44.0.00"/>
  </vehicle>
  <vehicle id="162" depart="1620.00" type="veh_aggressive">
    <route edges="-1.0.00 -50.0.00 22.0.00 21.0.00 28.0.00"/>
  </vehicle>
  <vehicle id="163" depart="1630.00" type="veh_aggressive">
    <route edges="-41.0.00 -51.0.00 -52.0.00 49.0.00"/>
  </vehicle>
  <vehicle id="164" depart="1640.00" type="veh_aggressive">
    <route edges="39.0.00 31.0.00 -29.0.00 -0.0.00 -1.0.00 -2.0.00 43.0.00"/>
  </vehicle>
  <vehicle id="165" depart="1650.00" type="veh_aggressive">
    <route edges="39.0.00 -32.0.00"/>
  </vehicle>
  <vehicle id="166" depart="1660.00" type="veh_aggressive">
    <route edges="35.0.00 -27.0.00 -28.0.00 -29.0.00 25.0.00 15.0.00 -19.0.00"/>
  </vehicle>
  <vehicle id="167" depart="1670.00" type="veh_aggressive">
    <route edges="43.0.00 42.0.00"/>
  </vehicle>
  <vehicle id="168" depart="1680.00" type="veh_aggressive">
    <route edges="-28.0.00 -29.0.00 -0.0.00 -1.0.00 49.0.00 4.0.00"/>
  </vehicle>
  <vehicle id="169" depart="1690.00" type="veh_aggressive">
    <route edges="-51.0.00 22.0.00 21.0.00 -30.0.00 -39.0.00"/>
  </vehicle>
  <vehicle id="170" depart="1700.00" type="veh_aggressive">
    <route edges="37.0.00 -13.0.00 -14.0.00 33.0.00 31.0.00 -29.0.00"/>
  </vehicle>
  <vehicle id="171" depart="1710.00" type="veh_aggressive">
    <route edges="-1.0.00 49.0.00 7.0.00 6.0.00 -16.0.00 -26.0.00"/>
  </vehicle>
  <vehicle id="172" depart="1720.00" type="veh_aggressive">
    <route edges="-41.0.00 -51.0.00 -52.0.00 -2.0.00 43.0.00"/>
  </vehicle>
  <vehicle id="173" depart="1730.00" type="veh_aggressive">
    <route edges="7.0.00 6.0.00 15.0.00 13.0.00 -36.0.00"/>
  </vehicle>
  <vehicle id="174" depart="1740.00" type="veh_aggressive">
    <route edges="20.0.00 48.0.00 -39.0.00 -0.0.00 -1.0.00 49.0.00 4.0.00 -46.0.00"/>
  </vehicle>
  <vehicle id="175" depart="1750.00" type="veh_aggressive">
    <route edges="8.0.00 -5.0.00 1.0.00 0.0.00"/>
  </vehicle>
  <vehicle id="176" depart="1760.00" type="veh_aggressive">
    <route edges="51.0.00 -42.0.00 23.0.00 -52.0.00 -2.0.00"/>
  </vehicle>
  <vehicle id="177" depart="1770.00" type="veh_aggressive">
    <route edges="7.0.00 -47.0.00 -18.0.00 -22.0.00 -23.0.00 -24.0.00"/>
  </vehicle>
  <vehicle id="178" depart="1780.00" type="veh_aggressive">
    <route edges="7.0.00 -47.0.00 0.0.00 39.0.00 -32.0.00"/>
  </vehicle>
  <vehicle id="179" depart="1790.00" type="veh_aggressive">
    <route edges="-19.0.00 48.0.00 -32.0.00 -6.0.00 -7.0.00 -5.0.00"/>
  </vehicle>
  <vehicle id="180" depart="1800.00" type="veh_aggressive">
    <route edges="28.0.00 27.0.00 -38.0.00 -13.0.00 -14.0.00 -6.0.00 46.0.00 -4.0.00"/>
  </vehicle>
  <vehicle id="181" depart="1810.00" type="veh_aggressive">
    <route edges="17.0.00 -7.0.00 -8.0.00"/>
  </vehicle>
  <vehicle id="182" depart="1820.00" type="veh_aggressive">
    <route edges="-45.0.00 -46.0.00 6.0.00 15.0.00 13.0.00"/>
  </vehicle>
  <vehicle id="183" depart="1830.00" type="veh_aggressive">
    <route edges="-30.0.00 -39.0.00 25.0.00"/>
  </vehicle>