<routes xmlns:xsi="http://www.w3.org/2001/XMLSchema-instance" xsi:noNamespaceSchemaLocation="http://sumo.dlr.de/xsd/routes_file.xsd">

<!-- BEGIN - LLM Generated trips -->
<vType id="v_aggressive4" carFollowModel="EIDM" laneChangeModel="SL2015" minGap="1.58" accel="3.37" decel="4.37" emergencyDecel="7.16" startupDelay="1.08" tau="1.58" maxSpeed="35.78" speedFactor="0.77" ccoolness="0.37" sigmaleader="0.52" sigmagap="0.52" sigmaerror="0.52" jerkmax="5.16" epsilonacc="2.08" taccmax="0.79" lcStrategic="5.16" lcCooperative="0.37" lcSpeedGain="2.08" lcKeepRight="0.79" lcOvertakeRight="0.72" lcSpeedGainLookahead="0.79" lcOvertakeDeltaSpeedFactor="0.86" lcPushy="0.72" lcAssertive="3.16" lcImpatience="0.37" lcTimeToImpatience="2.16" lcLaneDiscipline="0.79" lcSigma="0.52" lcAccelLat="2.08" probability="0.2">
		<param key="device.rerouting.probability" value="1.0" />
		<param key="device.rerouting.adaptation-steps" value="18" />
		<param key="device.rerouting.adaptation-interval" value="10" />
	</vType>
<vType id="v_aggressive3" carFollowModel="EIDM" laneChangeModel="SL2015" minGap="1.58" accel="3.37" decel="4.37" emergencyDecel="7.16" startupDelay="1.08" tau="1.58" maxSpeed="35.78" speedFactor="0.77" ccoolness="0.37" sigmaleader="0.52" sigmagap="0.52" sigmaerror="0.52" jerkmax="5.16" epsilonacc="2.08" taccmax="0.79" lcStrategic="5.16" lcCooperative="0.37" lcSpeedGain="2.08" lcKeepRight="0.79" lcOvertakeRight="0.72" lcSpeedGainLookahead="0.79" lcOvertakeDeltaSpeedFactor="0.86" lcPushy="0.72" lcAssertive="3.16" lcImpatience="0.37" lcTimeToImpatience="2.16" lcLaneDiscipline="0.79" lcSigma="0.52" lcAccelLat="2.08" probability="0.2">
		<param key="device.rerouting.probability" value="1.0" />
		<param key="device.rerouting.adaptation-steps" value="18" />
		<param key="device.rerouting.adaptation-interval" value="10" />
	</vType>
	<vType id="v_aggressive2" carFollowModel="EIDM" laneChangeModel="SL2015" minGap="1.58" accel="3.37" decel="4.37" emergencyDecel="7.16" startupDelay="1.08" tau="1.58" maxSpeed="35.78" speedFactor="0.77" ccoolness="0.37" sigmaleader="0.52" sigmagap="0.52" sigmaerror="0.52" jerkmax="5.16" epsilonacc="2.08" taccmax="0.79" lcStrategic="5.16" lcCooperative="0.37" lcSpeedGain="2.08" lcKeepRight="0.79" lcOvertakeRight="0.72" lcSpeedGainLookahead="0.79" lcOvertakeDeltaSpeedFactor="0.86" lcPushy="0.72" lcAssertive="3.16" lcImpatience="0.37" lcTimeToImpatience="2.16" lcLaneDiscipline="0.79" lcSigma="0.52" lcAccelLat="2.08" probability="0.2">
		<param key="device.rerouting.probability" value="1.0" />
		<param key="device.rerouting.adaptation-steps" value="18" />
		<param key="device.rerouting.adaptation-interval" value="10" />
	</vType>
	<vType id="v_aggressive1" carFollowModel="EIDM" laneChangeModel="SL2015" minGap="1.58" accel="3.37" decel="4.37" emergencyDecel="7.16" startupDelay="1.08" tau="1.58" maxSpeed="35.78" speedFactor="0.77" ccoolness="0.37" sigmaleader="0.52" sigmagap="0.52" sigmaerror="0.52" jerkmax="5.16" epsilonacc="2.08" taccmax="0.79" lcStrategic="5.16" lcCooperative="0.37" lcSpeedGain="2.08" lcKeepRight="0.79" lcOvertakeRight="0.72" lcSpeedGainLookahead="0.79" lcOvertakeDeltaSpeedFactor="0.86" lcPushy="0.72" lcAssertive="3.16" lcImpatience="0.37" lcTimeToImpatience="2.16" lcLaneDiscipline="0.79" lcSigma="0.52" lcAccelLat="2.08" probability="0.2">
		<param key="device.rerouting.probability" value="1.0" />
		<param key="device.rerouting.adaptation-steps" value="18" />
		<param key="device.rerouting.adaptation-interval" value="10" />
	</vType>
	<vType id="v_aggressive0" carFollowModel="EIDM" laneChangeModel="SL2015" minGap="1.58" accel="3.37" decel="4.37" emergencyDecel="7.16" startupDelay="1.08" tau="1.58" maxSpeed="35.78" speedFactor="0.77" ccoolness="0.37" sigmaleader="0.52" sigmagap="0.52" sigmaerror="0.52" jerkmax="5.16" epsilonacc="2.08" taccmax="0.79" lcStrategic="5.16" lcCooperative="0.37" lcSpeedGain="2.08" lcKeepRight="0.79" lcOvertakeRight="0.72" lcSpeedGainLookahead="0.79" lcOvertakeDeltaSpeedFactor="0.86" lcPushy="0.72" lcAssertive="3.16" lcImpatience="0.37" lcTimeToImpatience="2.16" lcLaneDiscipline="0.79" lcSigma="0.52" lcAccelLat="2.08" probability="0.2">
		<param key="device.rerouting.probability" value="1.0" />
		<param key="device.rerouting.adaptation-steps" value="18" />
		<param key="device.rerouting.adaptation-interval" value="10" />
	</vType>
	<vType id="v_normal4" carFollowModel="EIDM" laneChangeModel="SL2015" minGap="3.16" accel="2.08" decel="2.87" emergencyDecel="5.16" startupDelay="1.58" tau="3.16" maxSpeed="25.78" speedFactor="0.68" ccoolness="0.67" sigmaleader="0.22" sigmagap="0.22" sigmaerror="0.22" jerkmax="3.16" epsilonacc="0.79" taccmax="1.58" lcStrategic="3.16" lcCooperative="0.67" lcSpeedGain="0.79" lcKeepRight="1.58" lcOvertakeRight="0.22" lcSpeedGainLookahead="1.58" lcOvertakeDeltaSpeedFactor="0.67" lcPushy="0.22" lcAssertive="1.58" lcImpatience="0.67" lcTimeToImpatience="7.89" lcLaneDiscipline="1.58" lcSigma="0.22" lcAccelLat="0.79" probability="0.2">
		<param key="device.rerouting.probability" value="1.0" />
		<param key="device.rerouting.adaptation-steps" value="18" />
		<param key="device.rerouting.adaptation-interval" value="10" />
	</vType>
<vType id="v_normal3" carFollowModel="EIDM" laneChangeModel="SL2015" minGap="3.16" accel="2.08" decel="2.87" emergencyDecel="5.16" startupDelay="1.58" tau="3.16" maxSpeed="25.78" speedFactor="0.68" ccoolness="0.67" sigmaleader="0.22" sigmagap="0.22" sigmaerror="0.22" jerkmax="3.16" epsilonacc="0.79" taccmax="1.58" lcStrategic="3.16" lcCooperative="0.67" lcSpeedGain="0.79" lcKeepRight="1.58" lcOvertakeRight="0.22" lcSpeedGainLookahead="1.58" lcOvertakeDeltaSpeedFactor="0.67" lcPushy="0.22" lcAssertive="1.58" lcImpatience="0.67" lcTimeToImpatience="7.89" lcLaneDiscipline="1.58" lcSigma="0.22" lcAccelLat="0.79" probability="0.2">
		<param key="device.rerouting.probability" value="1.0" />
		<param key="device.rerouting.adaptation-steps" value="18" />
		<param key="device.rerouting.adaptation-interval" value="10" />
	</vType>
	<vType id="v_normal2" carFollowModel="EIDM" laneChangeModel="SL2015" minGap="3.16" accel="2.08" decel="2.87" emergencyDecel="5.16" startupDelay="1.58" tau="3.16" maxSpeed="25.78" speedFactor="0.68" ccoolness="0.67" sigmaleader="0.22" sigmagap="0.22" sigmaerror="0.22" jerkmax="3.16" epsilonacc="0.79" taccmax="1.58" lcStrategic="3.16" lcCooperative="0.67" lcSpeedGain="0.79" lcKeepRight="1.58" lcOvertakeRight="0.22" lcSpeedGainLookahead="1.58" lcOvertakeDeltaSpeedFactor="0.67" lcPushy="0.22" lcAssertive="1.58" lcImpatience="0.67" lcTimeToImpatience="7.89" lcLaneDiscipline="1.58" lcSigma="0.22" lcAccelLat="0.79" probability="0.2">
		<param key="device.rerouting.probability" value="1.0" />
		<param key="device.rerouting.adaptation-steps" value="18" />
		<param key="device.rerouting.adaptation-interval" value="10" />
	</vType>
	<vType id="v_normal1" carFollowModel="EIDM" laneChangeModel="SL2015" minGap="3.16" accel="2.08" decel="2.87" emergencyDecel="5.16" startupDelay="1.58" tau="3.16" maxSpeed="25.78" speedFactor="0.68" ccoolness="0.67" sigmaleader="0.22" sigmagap="0.22" sigmaerror="0.22" jerkmax="3.16" epsilonacc="0.79" taccmax="1.58" lcStrategic="3.16" lcCooperative="0.67" lcSpeedGain="0.79" lcKeepRight="1.58" lcOvertakeRight="0.22" lcSpeedGainLookahead="1.58" lcOvertakeDeltaSpeedFactor="0.67" lcPushy="0.22" lcAssertive="1.58" lcImpatience="0.67" lcTimeToImpatience="7.89" lcLaneDiscipline="1.58" lcSigma="0.22" lcAccelLat="0.79" probability="0.2">
		<param key="device.rerouting.probability" value="1.0" />
		<param key="device.rerouting.adaptation-steps" value="18" />
		<param key="device.rerouting.adaptation-interval" value="10" />
	</vType>
	<vType id="v_normal0" carFollowModel="EIDM" laneChangeModel="SL2015" minGap="3.16" accel="2.08" decel="2.87" emergencyDecel="5.16" startupDelay="1.58" tau="3.16" maxSpeed="25.78" speedFactor="0.68" ccoolness="0.67" sigmaleader="0.22" sigmagap="0.22" sigmaerror="0.22" jerkmax="3.16" epsilonacc="0.79" taccmax="1.58" lcStrategic="3.16" lcCooperative="0.67" lcSpeedGain="0.79" lcKeepRight="1.58" lcOvertakeRight="0.22" lcSpeedGainLookahead="1.58" lcOvertakeDeltaSpeedFactor="0.67" lcPushy="0.22" lcAssertive="1.58" lcImpatience="0.67" lcTimeToImpatience="7.89" lcLaneDiscipline="1.58" lcSigma="0.22" lcAccelLat="0.79" probability="0.2">
		<param key="device.rerouting.probability" value="1.0" />
		<param key="device.rerouting.adaptation-steps" value="18" />
		<param key="device.rerouting.adaptation-interval" value="10" />
	</vType>
	<trip id="veh0" type="v_aggressive2" depart="0" from="25.0.00" to="25.0.00">
	<stop edge="-7.0.00" duration="10" />
	<stop edge="25.0.00" duration="20" />
	<stop edge="-43.0.00" duration="10" />
	<stop edge="25.0.00" duration="10" />
	<stop edge="-52.0.00" duration="10" />
	<stop edge="-43.0.00" duration="10" />
	<stop edge="-30.0.00" duration="10" />
	<stop edge="35.0.00" duration="10" />
	<stop edge="25.0.00" duration="10" />
	<stop edge="-7.0.00" duration="10" />
	<stop edge="51.0.00" duration="10" />
	<stop edge="25.0.00" duration="10" />
	<stop edge="-43.0.00" duration="10" />
</trip>
<!-- END - LLM Generated trips -->

<!-- BEGIN - Random Trips -->

	<vehicle id="0" depart="0.00" type="v_normal0">
        <route edges="20.0.00 48.0.00 -32.0.00 -6.0.00 -7.0.00 -8.0.00 -9.0.00 -10.0.00" />
    </vehicle>
    <vehicle id="1" depart="10.00" type="v_normal0">
        <route edges="-36.0.00 -27.0.00 -28.0.00" />
    </vehicle>
    <vehicle id="2" depart="20.00" type="v_normal0">
        <route edges="28.0.00 27.0.00 -38.0.00 -13.0.00 -14.0.00 -16.0.00 -26.0.00 -21.0.00 -41.0.00 -42.0.00 23.0.00" />
    </vehicle>
    <vehicle id="3" depart="30.00" type="v_normal0">
        <route edges="45.0.00 8.0.00 7.0.00 6.0.00 -16.0.00" />
    </vehicle>
    <vehicle id="4" depart="40.00" type="v_normal0">
        <route edges="-48.0.00 -20.0.00 -28.0.00 -29.0.00 -0.0.00 -1.0.00 -2.0.00 -44.0.00 -9.0.00 -10.0.00" />
    </vehicle>
    <vehicle id="5" depart="50.00" type="v_normal0">
        <route edges="-28.0.00 -29.0.00 25.0.00 -6.0.00 -7.0.00 -8.0.00" />
    </vehicle>
    <vehicle id="6" depart="60.00" type="v_normal0">
        <route edges="-10.0.00 3.0.00 2.0.00 1.0.00 0.0.00 -26.0.00" />
    </vehicle>
    <vehicle id="7" depart="70.00" type="v_normal0">
        <route edges="20.0.00 48.0.00 -32.0.00 -6.0.00 -7.0.00 -5.0.00 1.0.00" />
    </vehicle>
    <vehicle id="8" depart="80.00" type="v_normal0">
        <route edges="-28.0.00 -29.0.00 25.0.00 15.0.00" />
    </vehicle>
    <vehicle id="9" depart="90.00" type="v_normal0">
        <route edges="39.0.00 31.0.00 -29.0.00 -0.0.00" />
    </vehicle>
    <vehicle id="10" depart="100.00" type="v_normal0">
        <route edges="39.0.00 -32.0.00 -6.0.00 -7.0.00 -8.0.00 -9.0.00 -10.0.00 -11.0.00 24.0.00" />
    </vehicle>
    <vehicle id="11" depart="110.00" type="v_normal0">
        <route edges="-42.0.00 -43.0.00 2.0.00 1.0.00 -18.0.00 -22.0.00" />
    </vehicle>
    <vehicle id="12" depart="120.00" type="v_normal0">
        <route edges="6.0.00 -16.0.00 -26.0.00 -21.0.00 -41.0.00" />
    </vehicle>
    <vehicle id="13" depart="130.00" type="v_normal0">
        <route edges="-18.0.00" />
    </vehicle>
    <vehicle id="14" depart="140.00" type="v_normal0">
        <route edges="41.0.00 40.0.00 17.0.00" />
    </vehicle>
    <vehicle id="15" depart="150.00" type="v_normal0">
        <route edges="39.0.00 31.0.00 28.0.00" />
    </vehicle>
    <vehicle id="16" depart="160.00" type="v_normal0">
        <route edges="0.0.00 -26.0.00 -21.0.00 40.0.00 -1.0.00 49.0.00 7.0.00" />
    </vehicle>
    <vehicle id="17" depart="170.00" type="v_normal0">
        <route edges="-45.0.00 -4.0.00 -5.0.00 -2.0.00 -3.0.00 10.0.00" />
    </vehicle>
    <vehicle id="18" depart="180.00" type="v_normal0">
        <route edges="40.0.00 0.0.00 39.0.00 -48.0.00 19.0.00" />
    </vehicle>
    <vehicle id="19" depart="190.00" type="v_normal0">
        <route edges="42.0.00 41.0.00 21.0.00 -29.0.00 25.0.00 15.0.00 13.0.00" />
    </vehicle>
    <vehicle id="20" depart="200.00" type="v_normal0">
        <route edges="25.0.00 -6.0.00 -7.0.00 -8.0.00 -9.0.00 -10.0.00 -11.0.00" />
    </vehicle>
    <vehicle id="21" depart="210.00" type="v_normal0">
        <route edges="-29.0.00 39.0.00 31.0.00 28.0.00 27.0.00 -38.0.00" />
    </vehicle>
    <vehicle id="22" depart="220.00" type="v_normal0">
        <route edges="-16.0.00 39.0.00 31.0.00 -29.0.00" />
    </vehicle>
    <vehicle id="23" depart="230.00" type="v_normal0">
        <route edges="-19.0.00 48.0.00 -32.0.00 15.0.00 13.0.00 -36.0.00" />
    </vehicle>
    <vehicle id="24" depart="240.00" type="v_normal0">
        <route edges="2.0.00 -50.0.00 -23.0.00 -43.0.00 -44.0.00" />
    </vehicle>
    <vehicle id="25" depart="250.00" type="v_normal0">
        <route edges="-44.0.00 8.0.00 7.0.00 6.0.00 15.0.00 13.0.00 35.0.00 -27.0.00" />
    </vehicle>
    <vehicle id="26" depart="260.00" type="v_normal0">
        <route edges="-32.0.00 -16.0.00 -0.0.00 -1.0.00 49.0.00" />
    </vehicle>
    <vehicle id="27" depart="270.00" type="v_normal0">
        <route edges="20.0.00 48.0.00 -39.0.00 -0.0.00 17.0.00" />
    </vehicle>
    <vehicle id="28" depart="280.00" type="v_normal0">
        <route edges="-23.0.00 42.0.00 41.0.00 21.0.00 28.0.00" />
    </vehicle>
    <vehicle id="29" depart="290.00" type="v_normal0">
        <route edges="-23.0.00 -43.0.00 -44.0.00 -45.0.00" />
    </vehicle>
    <vehicle id="30" depart="300.00" type="v_normal0">
        <route edges="9.0.00 8.0.00 7.0.00 6.0.00 15.0.00 13.0.00 35.0.00 -27.0.00 20.0.00" />
    </vehicle>
    <vehicle id="31" depart="310.00" type="v_normal0">
        <route edges="10.0.00 9.0.00 44.0.00 43.0.00 23.0.00" />
    </vehicle>
    <vehicle id="32" depart="320.00" type="v_normal0">
        <route edges="41.0.00 21.0.00 -29.0.00 25.0.00 15.0.00 13.0.00 35.0.00" />
    </vehicle>
    <vehicle id="33" depart="330.00" type="v_normal0">
        <route edges="-29.0.00 -0.0.00 -1.0.00 -2.0.00 -44.0.00 -9.0.00 -10.0.00" />
    </vehicle>
    <vehicle id="34" depart="340.00" type="v_normal0">
        <route edges="-4.0.00 -5.0.00 1.0.00 0.0.00 39.0.00 -32.0.00" />
    </vehicle>
    <vehicle id="35" depart="350.00" type="v_normal0">
        <route edges="-27.0.00 -28.0.00 -21.0.00 -22.0.00 51.0.00" />
    </vehicle>
    <vehicle id="36" depart="360.00" type="v_normal0">
        <route edges="44.0.00 -3.0.00 10.0.00 9.0.00 -45.0.00 -4.0.00" />
    </vehicle>
    <vehicle id="37" depart="370.00" type="v_normal0">
        <route edges="21.0.00 -29.0.00 -0.0.00 -1.0.00 49.0.00 4.0.00 -46.0.00" />
    </vehicle>
    <vehicle id="38" depart="380.00" type="v_normal0">
        <route edges="48.0.00 31.0.00 -21.0.00 -41.0.00 -51.0.00" />
    </vehicle>
    <vehicle id="39" depart="390.00" type="v_normal0">
        <route edges="-32.0.00 -6.0.00 -7.0.00 -5.0.00 -2.0.00 -3.0.00" />
    </vehicle>
    <vehicle id="40" depart="400.00" type="v_normal0">
        <route edges="10.0.00 9.0.00 44.0.00 2.0.00 1.0.00 0.0.00 39.0.00 -32.0.00" />
    </vehicle>
    <vehicle id="41" depart="410.00" type="v_normal0">
        <route edges="13.0.00 35.0.00 -27.0.00 -28.0.00 -29.0.00 -0.0.00 17.0.00 46.0.00 45.0.00" />
    </vehicle>
    <vehicle id="42" depart="420.00" type="v_normal0">
        <route edges="-46.0.00 6.0.00 33.0.00 -48.0.00 -20.0.00 -28.0.00" />
    </vehicle>
    <vehicle id="43" depart="430.00" type="v_normal0">
        <route edges="9.0.00 -45.0.00 -4.0.00 -8.0.00" />
    </vehicle>
    <vehicle id="44" depart="440.00" type="v_normal0">
        <route edges="-18.0.00 -22.0.00 -52.0.00 -2.0.00 -3.0.00 -11.0.00" />
    </vehicle>
    <vehicle id="45" depart="450.00" type="v_normal0">
        <route edges="-19.0.00 48.0.00 -32.0.00 -6.0.00 -7.0.00 -8.0.00 44.0.00 2.0.00" />
    </vehicle>
    <vehicle id="46" depart="460.00" type="v_normal0">
        <route edges="37.0.00 -13.0.00 -14.0.00 33.0.00 -48.0.00" />
    </vehicle>
    <vehicle id="47" depart="470.00" type="v_normal0">
        <route edges="-14.0.00 -6.0.00 -7.0.00 -8.0.00 -45.0.00" />
    </vehicle>
    <vehicle id="48" depart="480.00" type="v_normal0">
        <route edges="9.0.00 44.0.00 2.0.00 1.0.00 0.0.00" />
    </vehicle>
    <vehicle id="49" depart="490.00" type="v_normal0">
        <route edges="7.0.00 -47.0.00 -1.0.00 -2.0.00 43.0.00 42.0.00" />
    </vehicle>
    <vehicle id="50" depart="500.00" type="v_normal0">
        <route edges="-0.0.00 -18.0.00 21.0.00 28.0.00 27.0.00" />
    </vehicle>
    <vehicle id="51" depart="510.00" type="v_normal0">
        <route edges="23.0.00 -52.0.00 1.0.00 0.0.00" />
    </vehicle>
    <vehicle id="52" depart="520.00" type="v_normal0">
        <route edges="-32.0.00 15.0.00 13.0.00 35.0.00 -27.0.00 20.0.00" />
    </vehicle>
    <vehicle id="53" depart="530.00" type="v_normal0">
        <route edges="-19.0.00 48.0.00 -32.0.00 -6.0.00 -7.0.00 -5.0.00" />
    </vehicle>
    <vehicle id="54" depart="540.00" type="v_normal0">
        <route edges="-51.0.00 -52.0.00 49.0.00 7.0.00 6.0.00" />
    </vehicle>
    <vehicle id="55" depart="550.00" type="v_normal0">
        <route edges="44.0.00 2.0.00 1.0.00 0.0.00 39.0.00 -32.0.00" />
    </vehicle>
    <vehicle id="56" depart="560.00" type="v_normal0">
        <route edges="-8.0.00 44.0.00 43.0.00 -24.0.00" />
    </vehicle>
    <vehicle id="57" depart="570.00" type="v_normal0">
        <route edges="48.0.00 -39.0.00 -0.0.00 -1.0.00 -2.0.00 43.0.00" />
    </vehicle>
    <vehicle id="58" depart="580.00" type="v_normal0">
        <route edges="-38.0.00 -36.0.00 -27.0.00 20.0.00" />
    </vehicle>
    <vehicle id="59" depart="590.00" type="v_normal0">
        <route edges="17.0.00 6.0.00 -16.0.00 -26.0.00 -21.0.00 -22.0.00" />
    </vehicle>
    <vehicle id="60" depart="600.00" type="v_normal0">
        <route edges="33.0.00 31.0.00 -21.0.00 -22.0.00 -52.0.00 1.0.00" />
    </vehicle>
    <vehicle id="61" depart="610.00" type="v_normal0">
        <route edges="35.0.00 -27.0.00 -28.0.00 -21.0.00 40.0.00 0.0.00" />
    </vehicle>
    <vehicle id="62" depart="620.00" type="v_normal0">
        <route edges="-0.0.00 17.0.00 46.0.00 -4.0.00" />
    </vehicle>
    <vehicle id="63" depart="630.00" type="v_normal0">
        <route edges="-1.0.00 49.0.00" />
    </vehicle>
    <vehicle id="64" depart="640.00" type="v_normal0">
        <route edges="44.0.00 2.0.00 -50.0.00 22.0.00 40.0.00" />
    </vehicle>
    <vehicle id="65" depart="650.00" type="v_normal0">
        <route edges="-39.0.00 -26.0.00 28.0.00 27.0.00 -38.0.00 -13.0.00" />
    </vehicle>
    <vehicle id="66" depart="660.00" type="v_normal0">
        <route edges="44.0.00 2.0.00 -50.0.00 51.0.00" />
    </vehicle>
    <vehicle id="67" depart="670.00" type="v_normal0">
        <route edges="-16.0.00 39.0.00 -32.0.00 -6.0.00" />
    </vehicle>
    <vehicle id="68" depart="680.00" type="v_normal0">
        <route edges="-14.0.00 33.0.00 31.0.00" />
    </vehicle>
    <vehicle id="69" depart="690.00" type="v_normal0">
        <route edges="33.0.00 -48.0.00 -20.0.00" />
    </vehicle>
    <vehicle id="70" depart="700.00" type="v_normal0">
        <route edges="-6.0.00 -7.0.00 -5.0.00 1.0.00" />
    </vehicle>
    <vehicle id="71" depart="710.00" type="v_normal0">
        <route edges="-32.0.00 -6.0.00 -7.0.00 -8.0.00 44.0.00 43.0.00" />
    </vehicle>
    <vehicle id="72" depart="720.00" type="v_normal0">
        <route edges="-48.0.00 19.0.00 13.0.00 35.0.00 -27.0.00" />
    </vehicle>
    <vehicle id="73" depart="730.00" type="v_normal0">
        <route edges="1.0.00 0.0.00 -26.0.00 28.0.00" />
    </vehicle>
    <vehicle id="74" depart="740.00" type="v_normal0">
        <route edges="-27.0.00 -28.0.00 -30.0.00 -39.0.00" />
    </vehicle>
    <vehicle id="75" depart="750.00" type="v_normal0">
        <route edges="9.0.00 8.0.00 7.0.00 6.0.00 15.0.00 13.0.00 35.0.00 -27.0.00 20.0.00" />
    </vehicle>
    <vehicle id="76" depart="760.00" type="v_normal0">
        <route edges="-50.0.00 -23.0.00 -43.0.00 -44.0.00 -9.0.00" />
    </vehicle>
    <vehicle id="77" depart="770.00" type="v_normal0">
        <route edges="-2.0.00 -44.0.00 8.0.00 7.0.00 6.0.00 33.0.00 -48.0.00 -20.0.00 -28.0.00" />
    </vehicle>
    <vehicle id="78" depart="780.00" type="v_normal0">
        <route edges="-42.0.00 -43.0.00 2.0.00 1.0.00 0.0.00 25.0.00 15.0.00" />
    </vehicle>
    <vehicle id="79" depart="790.00" type="v_normal0">
        <route edges="-29.0.00 39.0.00 -48.0.00 -20.0.00 -28.0.00" />
    </vehicle>
    <vehicle id="80" depart="800.00" type="v_normal0">
        <route edges="-14.0.00 -6.0.00 -7.0.00 -8.0.00 44.0.00 2.0.00" />
    </vehicle>
    <vehicle id="81" depart="810.00" type="v_normal0">
        <route edges="-29.0.00 -0.0.00 17.0.00 46.0.00" />
    </vehicle>
    <vehicle id="82" depart="820.00" type="v_normal0">
        <route edges="42.0.00 41.0.00 21.0.00 28.0.00 27.0.00 -38.0.00 -13.0.00 -14.0.00" />
    </vehicle>
    <vehicle id="83" depart="830.00" type="v_normal0">
        <route edges="-3.0.00 -11.0.00 24.0.00 23.0.00 22.0.00" />
    </vehicle>
    <vehicle id="84" depart="840.00" type="v_normal0">
        <route edges="-28.0.00 -30.0.00 -48.0.00 -20.0.00" />
    </vehicle>
    <vehicle id="85" depart="850.00" type="v_normal0">
        <route edges="49.0.00 -8.0.00 44.0.00 43.0.00 -24.0.00 11.0.00" />
    </vehicle>
    <vehicle id="86" depart="860.00" type="v_normal0">
        <route edges="-52.0.00 49.0.00 7.0.00 6.0.00 15.0.00 13.0.00 35.0.00" />
    </vehicle>
    <vehicle id="87" depart="870.00" type="v_normal0">
        <route edges="39.0.00 -32.0.00 -16.0.00 -26.0.00" />
    </vehicle>
    <vehicle id="88" depart="880.00" type="v_normal0">
        <route edges="-18.0.00 -22.0.00 -52.0.00 -2.0.00 -44.0.00 8.0.00 -5.0.00" />
    </vehicle>
    <vehicle id="89" depart="890.00" type="v_normal0">
        <route edges="-48.0.00 -20.0.00 -28.0.00 -21.0.00 -22.0.00 -52.0.00" />
    </vehicle>
    <vehicle id="90" depart="900.00" type="v_normal0">
        <route edges="28.0.00 27.0.00 -38.0.00 -13.0.00 -14.0.00 -6.0.00 -7.0.00 -5.0.00 -50.0.00 22.0.00" />
    </vehicle>
    <vehicle id="91" depart="910.00" type="v_normal0">
        <route edges="8.0.00 7.0.00 -47.0.00 -18.0.00" />
    </vehicle>
    <vehicle id="92" depart="920.00" type="v_normal0">
        <route edges="-47.0.00 -18.0.00 -41.0.00 -42.0.00" />
    </vehicle>
    <vehicle id="93" depart="930.00" type="v_normal0">
        <route edges="42.0.00 -51.0.00 -52.0.00 -2.0.00 -3.0.00" />
    </vehicle>
    <vehicle id="94" depart="940.00" type="v_normal0">
        <route edges="-26.0.00 -21.0.00 40.0.00 -1.0.00 -50.0.00" />
    </vehicle>
    <vehicle id="95" depart="950.00" type="v_normal0">
        <route edges="-48.0.00 19.0.00 13.0.00 -36.0.00" />
    </vehicle>
    <vehicle id="96" depart="960.00" type="v_normal0">
        <route edges="-3.0.00 10.0.00 9.0.00 8.0.00 7.0.00 6.0.00 15.0.00 -19.0.00 48.0.00" />
    </vehicle>
    <vehicle id="97" depart="970.00" type="v_normal0">
        <route edges="-50.0.00 -23.0.00 42.0.00" />
    </vehicle>
    <vehicle id="98" depart="980.00" type="v_normal0">
        <route edges="10.0.00 9.0.00 44.0.00 2.0.00 1.0.00 0.0.00 -26.0.00 28.0.00 27.0.00 -38.0.00 -13.0.00" />
    </vehicle>
    <vehicle id="99" depart="990.00" type="v_normal0">
        <route edges="9.0.00 44.0.00 2.0.00 -50.0.00 22.0.00 40.0.00" />
    </vehicle>
    <vehicle id="100" depart="1000.00" type="v_aggressive0">
        <route edges="7.0.00 -47.0.00 -1.0.00 49.0.00" />
    </vehicle>
    <vehicle id="101" depart="1010.00" type="v_aggressive0">
        <route edges="41.0.00 -22.0.00 -23.0.00" />
    </vehicle>
    <vehicle id="102" depart="1020.00" type="v_aggressive0">
        <route edges="-6.0.00 -47.0.00 0.0.00 39.0.00 -48.0.00 -20.0.00 -28.0.00" />
    </vehicle>
    <vehicle id="103" depart="1030.00" type="v_aggressive0">
        <route edges="-47.0.00 0.0.00 -26.0.00 28.0.00 27.0.00 -38.0.00 -13.0.00" />
    </vehicle>
    <vehicle id="104" depart="1040.00" type="v_aggressive0">
        <route edges="-45.0.00 -4.0.00 -5.0.00 -2.0.00 -44.0.00 8.0.00" />
    </vehicle>
    <vehicle id="105" depart="1050.00" type="v_aggressive0">
        <route edges="-32.0.00 15.0.00 13.0.00 35.0.00" />
    </vehicle>
    <vehicle id="106" depart="1060.00" type="v_aggressive0">
        <route edges="-51.0.00 22.0.00 21.0.00 -30.0.00 -48.0.00" />
    </vehicle>
    <vehicle id="107" depart="1070.00" type="v_aggressive0">
        <route edges="6.0.00 -16.0.00 -0.0.00 -1.0.00 -2.0.00 -3.0.00 10.0.00 9.0.00" />
    </vehicle>
    <vehicle id="108" depart="1080.00" type="v_aggressive0">
        <route edges="10.0.00 9.0.00 44.0.00 2.0.00 1.0.00 0.0.00 -26.0.00 28.0.00 27.0.00" />
    </vehicle>
    <vehicle id="109" depart="1090.00" type="v_aggressive0">
        <route edges="-22.0.00 51.0.00 41.0.00 21.0.00 28.0.00 27.0.00 -38.0.00" />
    </vehicle>
    <vehicle id="110" depart="1100.00" type="v_aggressive0">
        <route edges="7.0.00 6.0.00 15.0.00 13.0.00" />
    </vehicle>
    <vehicle id="111" depart="1110.00" type="v_aggressive0">
        <route edges="1.0.00 -18.0.00 -22.0.00 -23.0.00 -24.0.00 11.0.00 3.0.00" />
    </vehicle>
    <vehicle id="112" depart="1120.00" type="v_aggressive0">
        <route edges="-13.0.00 -14.0.00 33.0.00 -39.0.00 25.0.00 15.0.00 13.0.00" />
    </vehicle>
    <vehicle id="113" depart="1130.00" type="v_aggressive0">
        <route edges="-8.0.00 44.0.00 43.0.00 42.0.00" />
    </vehicle>
    <vehicle id="114" depart="1140.00" type="v_aggressive0">
        <route edges="-22.0.00 -52.0.00 49.0.00 7.0.00 6.0.00" />
    </vehicle>
    <vehicle id="115" depart="1150.00" type="v_aggressive0">
        <route edges="-16.0.00 -0.0.00 -1.0.00 -2.0.00 43.0.00 -24.0.00" />
    </vehicle>
    <vehicle id="116" depart="1160.00" type="v_aggressive0">
        <route edges="15.0.00 -19.0.00 48.0.00 31.0.00 -21.0.00 -41.0.00 -42.0.00 23.0.00" />
    </vehicle>
    <vehicle id="117" depart="1170.00" type="v_aggressive0">
        <route edges="-29.0.00 -0.0.00 -1.0.00 -2.0.00" />
    </vehicle>
    <vehicle id="118" depart="1180.00" type="v_aggressive0">
        <route edges="45.0.00 44.0.00 -3.0.00" />
    </vehicle>
    <vehicle id="119" depart="1190.00" type="v_aggressive0">
        <route edges="15.0.00 -19.0.00 48.0.00 -39.0.00 25.0.00 33.0.00 -48.0.00 19.0.00" />
    </vehicle>
    <vehicle id="120" depart="1200.00" type="v_aggressive0">
        <route edges="-48.0.00 19.0.00 13.0.00" />
    </vehicle>
    <vehicle id="121" depart="1210.00" type="v_aggressive0">
        <route edges="-9.0.00 -10.0.00 3.0.00 2.0.00 49.0.00" />
    </vehicle>
    <vehicle id="122" depart="1220.00" type="v_aggressive0">
        <route edges="-27.0.00 -28.0.00 -29.0.00 39.0.00 31.0.00 28.0.00 27.0.00" />
    </vehicle>
    <vehicle id="123" depart="1230.00" type="v_aggressive0">
        <route edges="-3.0.00 10.0.00 9.0.00 -45.0.00 -46.0.00" />
    </vehicle>
    <vehicle id="124" depart="1240.00" type="v_aggressive0">
        <route edges="22.0.00 21.0.00 28.0.00 27.0.00 -38.0.00" />
    </vehicle>
    <vehicle id="125" depart="1250.00" type="v_aggressive0">
        <route edges="-4.0.00 7.0.00 6.0.00 33.0.00 31.0.00" />
    </vehicle>
    <vehicle id="126" depart="1260.00" type="v_aggressive0">
        <route edges="-14.0.00 -16.0.00 -26.0.00 -21.0.00 -41.0.00 -51.0.00" />
    </vehicle>
    <vehicle id="127" depart="1270.00" type="v_aggressive0">
        <route edges="9.0.00" />
    </vehicle>
    <vehicle id="128" depart="1280.00" type="v_aggressive0">
        <route edges="-14.0.00 33.0.00 -48.0.00 -20.0.00 -28.0.00" />
    </vehicle>
    <vehicle id="129" depart="1290.00" type="v_aggressive0">
        <route edges="-32.0.00 -16.0.00 -0.0.00 -1.0.00 49.0.00" />
    </vehicle>
    <vehicle id="130" depart="1300.00" type="v_aggressive0">
        <route edges="44.0.00" />
    </vehicle>
    <vehicle id="131" depart="1310.00" type="v_aggressive0">
        <route edges="-44.0.00 8.0.00 7.0.00 -47.0.00 -18.0.00 -22.0.00" />
    </vehicle>
    <vehicle id="132" depart="1320.00" type="v_aggressive0">
        <route edges="40.0.00 0.0.00 25.0.00" />
    </vehicle>
    <vehicle id="133" depart="1330.00" type="v_aggressive0">
        <route edges="17.0.00 46.0.00 45.0.00 8.0.00" />
    </vehicle>
    <vehicle id="134" depart="1340.00" type="v_aggressive0">
        <route edges="21.0.00 -29.0.00 -0.0.00" />
    </vehicle>
    <vehicle id="135" depart="1350.00" type="v_aggressive0">
        <route edges="4.0.00 -46.0.00 6.0.00 -16.0.00 -26.0.00 28.0.00 27.0.00 -38.0.00" />
    </vehicle>
    <vehicle id="136" depart="1360.00" type="v_aggressive0">
        <route edges="22.0.00 -41.0.00 -42.0.00 23.0.00 51.0.00" />
    </vehicle>
    <vehicle id="137" depart="1370.00" type="v_aggressive0">
        <route edges="-20.0.00 -28.0.00 -29.0.00 -0.0.00 -1.0.00 -2.0.00" />
    </vehicle>
    <vehicle id="138" depart="1380.00" type="v_aggressive0">
        <route edges="-19.0.00 48.0.00 -39.0.00 -0.0.00 -1.0.00 -2.0.00 -3.0.00 10.0.00" />
    </vehicle>
    <vehicle id="139" depart="1390.00" type="v_aggressive0">
        <route edges="-32.0.00 -16.0.00 -0.0.00 17.0.00" />
    </vehicle>
    <vehicle id="140" depart="1400.00" type="v_aggressive0">
        <route edges="27.0.00 37.0.00 35.0.00 -27.0.00" />
    </vehicle>
    <vehicle id="141" depart="1410.00" type="v_aggressive0">
        <route edges="2.0.00 1.0.00 0.0.00 39.0.00 -32.0.00" />
    </vehicle>
    <vehicle id="142" depart="1420.00" type="v_aggressive0">
        <route edges="-7.0.00 -5.0.00 1.0.00 17.0.00 46.0.00" />
    </vehicle>
    <vehicle id="143" depart="1430.00" type="v_aggressive0">
        <route edges="41.0.00 -22.0.00 -52.0.00 1.0.00 -18.0.00" />
    </vehicle>
    <vehicle id="144" depart="1440.00" type="v_aggressive0">
        <route edges="-48.0.00 19.0.00 13.0.00 -36.0.00" />
    </vehicle>