<?xml version='1.0' encoding='utf-8'?>
<routes xmlns:xsi="http://www.w3.org/2001/XMLSchema-instance" xsi:noNamespaceSchemaLocation="http://sumo.dlr.de/xsd/routes_file.xsd">


<vType id="v_aggressive4" carFollowModel="EIDM" laneChangeModel="SL2015" minGap="1.58" accel="3.37" decel="4.37" emergencyDecel="7.16" startupDelay="1.08" tau="1.58" maxSpeed="35.78" speedFactor="0.77" ccoolness="0.37" sigmaleader="0.52" sigmagap="0.52" sigmaerror="0.52" jerkmax="5.16" epsilonacc="2.08" taccmax="0.79" lcStrategic="5.16" lcCooperative="0.37" lcSpeedGain="2.08" lcKeepRight="0.79" lcOvertakeRight="0.72" lcSpeedGainLookahead="0.79" lcOvertakeDeltaSpeedFactor="0.86" lcPushy="0.72" lcAssertive="3.16" lcImpatience="0.37" lcTimeToImpatience="2.16" lcLaneDiscipline="0.79" lcSigma="0.52" lcAccelLat="2.08" probability="0.2">
		<param key="device.rerouting.probability" value="1.0" />
		<param key="device.rerouting.adaptation-steps" value="18" />
		<param key="device.rerouting.adaptation-interval" value="10" />
	</vType>
<vType id="v_aggressive3" carFollowModel="EIDM" laneChangeModel="SL2015" minGap="1.58" accel="3.37" decel="4.37" emergencyDecel="7.16" startupDelay="1.08" tau="1.58" maxSpeed="35.78" speedFactor="0.77" ccoolness="0.37" sigmaleader="0.52" sigmagap="0.52" sigmaerror="0.52" jerkmax="5.16" epsilonacc="2.08" taccmax="0.79" lcStrategic="5.16" lcCooperative="0.37" lcSpeedGain="2.08" lcKeepRight="0.79" lcOvertakeRight="0.72" lcSpeedGainLookahead="0.79" lcOvertakeDeltaSpeedFactor="0.86" lcPushy="0.72" lcAssertive="3.16" lcImpatience="0.37" lcTimeToImpatience="2.16" lcLaneDiscipline="0.79" lcSigma="0.52" lcAccelLat="2.08" probability="0.2">
		<param key="device.rerouting.probability" value="1.0" />
		<param key="device.rerouting.adaptation-steps" value="18" />
		<param key="device.rerouting.adaptation-interval" value="10" />
	</vType>
	<vType id="v_aggressive2" carFollowModel="EIDM" laneChangeModel="SL2015" minGap="1.58" accel="3.37" decel="4.37" emergencyDecel="7.16" startupDelay="1.08" tau="1.58" maxSpeed="35.78" speedFactor="0.77" ccoolness="0.37" sigmaleader="0.52" sigmagap="0.52" sigmaerror="0.52" jerkmax="5.16" epsilonacc="2.08" taccmax="0.79" lcStrategic="5.16" lcCooperative="0.37" lcSpeedGain="2.08" lcKeepRight="0.79" lcOvertakeRight="0.72" lcSpeedGainLookahead="0.79" lcOvertakeDeltaSpeedFactor="0.86" lcPushy="0.72" lcAssertive="3.16" lcImpatience="0.37" lcTimeToImpatience="2.16" lcLaneDiscipline="0.79" lcSigma="0.52" lcAccelLat="2.08" probability="0.2">
		<param key="device.rerouting.probability" value="1.0" />
		<param key="device.rerouting.adaptation-steps" value="18" />
		<param key="device.rerouting.adaptation-interval" value="10" />
	</vType>
	<vType id="v_aggressive1" carFollowModel="EIDM" laneChangeModel="SL2015" minGap="1.58" accel="3.37" decel="4.37" emergencyDecel="7.16" startupDelay="1.08" tau="1.58" maxSpeed="35.78" speedFactor="0.77" ccoolness="0.37" sigmaleader="0.52" sigmagap="0.52" sigmaerror="0.52" jerkmax="5.16" epsilonacc="2.08" taccmax="0.79" lcStrategic="5.16" lcCooperative="0.37" lcSpeedGain="2.08" lcKeepRight="0.79" lcOvertakeRight="0.72" lcSpeedGainLookahead="0.79" lcOvertakeDeltaSpeedFactor="0.86" lcPushy="0.72" lcAssertive="3.16" lcImpatience="0.37" lcTimeToImpatience="2.16" lcLaneDiscipline="0.79" lcSigma="0.52" lcAccelLat="2.08" probability="0.2">
		<param key="device.rerouting.probability" value="1.0" />
		<param key="device.rerouting.adaptation-steps" value="18" />
		<param key="device.rerouting.adaptation-interval" value="10" />
	</vType>
	<vType id="v_aggressive0" carFollowModel="EIDM" laneChangeModel="SL2015" minGap="1.58" accel="3.37" decel="4.37" emergencyDecel="7.16" startupDelay="1.08" tau="1.58" maxSpeed="35.78" speedFactor="0.77" ccoolness="0.37" sigmaleader="0.52" sigmagap="0.52" sigmaerror="0.52" jerkmax="5.16" epsilonacc="2.08" taccmax="0.79" lcStrategic="5.16" lcCooperative="0.37" lcSpeedGain="2.08" lcKeepRight="0.79" lcOvertakeRight="0.72" lcSpeedGainLookahead="0.79" lcOvertakeDeltaSpeedFactor="0.86" lcPushy="0.72" lcAssertive="3.16" lcImpatience="0.37" lcTimeToImpatience="2.16" lcLaneDiscipline="0.79" lcSigma="0.52" lcAccelLat="2.08" probability="0.2">
		<param key="device.rerouting.probability" value="1.0" />
		<param key="device.rerouting.adaptation-steps" value="18" />
		<param key="device.rerouting.adaptation-interval" value="10" />
	</vType>
	<vType id="v_normal4" carFollowModel="EIDM" laneChangeModel="SL2015" minGap="3.16" accel="2.08" decel="2.87" emergencyDecel="5.16" startupDelay="1.58" tau="3.16" maxSpeed="25.78" speedFactor="0.68" ccoolness="0.67" sigmaleader="0.22" sigmagap="0.22" sigmaerror="0.22" jerkmax="3.16" epsilonacc="0.79" taccmax="1.58" lcStrategic="3.16" lcCooperative="0.67" lcSpeedGain="0.79" lcKeepRight="1.58" lcOvertakeRight="0.22" lcSpeedGainLookahead="1.58" lcOvertakeDeltaSpeedFactor="0.67" lcPushy="0.22" lcAssertive="1.58" lcImpatience="0.67" lcTimeToImpatience="7.89" lcLaneDiscipline="1.58" lcSigma="0.22" lcAccelLat="0.79" probability="0.2">
		<param key="device.rerouting.probability" value="1.0" />
		<param key="device.rerouting.adaptation-steps" value="18" />
		<param key="device.rerouting.adaptation-interval" value="10" />
	</vType>
<vType id="v_normal3" carFollowModel="EIDM" laneChangeModel="SL2015" minGap="3.16" accel="2.08" decel="2.87" emergencyDecel="5.16" startupDelay="1.58" tau="3.16" maxSpeed="25.78" speedFactor="0.68" ccoolness="0.67" sigmaleader="0.22" sigmagap="0.22" sigmaerror="0.22" jerkmax="3.16" epsilonacc="0.79" taccmax="1.58" lcStrategic="3.16" lcCooperative="0.67" lcSpeedGain="0.79" lcKeepRight="1.58" lcOvertakeRight="0.22" lcSpeedGainLookahead="1.58" lcOvertakeDeltaSpeedFactor="0.67" lcPushy="0.22" lcAssertive="1.58" lcImpatience="0.67" lcTimeToImpatience="7.89" lcLaneDiscipline="1.58" lcSigma="0.22" lcAccelLat="0.79" probability="0.2">
		<param key="device.rerouting.probability" value="1.0" />
		<param key="device.rerouting.adaptation-steps" value="18" />
		<param key="device.rerouting.adaptation-interval" value="10" />
	</vType>
	<vType id="v_normal2" carFollowModel="EIDM" laneChangeModel="SL2015" minGap="3.16" accel="2.08" decel="2.87" emergencyDecel="5.16" startupDelay="1.58" tau="3.16" maxSpeed="25.78" speedFactor="0.68" ccoolness="0.67" sigmaleader="0.22" sigmagap="0.22" sigmaerror="0.22" jerkmax="3.16" epsilonacc="0.79" taccmax="1.58" lcStrategic="3.16" lcCooperative="0.67" lcSpeedGain="0.79" lcKeepRight="1.58" lcOvertakeRight="0.22" lcSpeedGainLookahead="1.58" lcOvertakeDeltaSpeedFactor="0.67" lcPushy="0.22" lcAssertive="1.58" lcImpatience="0.67" lcTimeToImpatience="7.89" lcLaneDiscipline="1.58" lcSigma="0.22" lcAccelLat="0.79" probability="0.2">
		<param key="device.rerouting.probability" value="1.0" />
		<param key="device.rerouting.adaptation-steps" value="18" />
		<param key="device.rerouting.adaptation-interval" value="10" />
	</vType>
	<vType id="v_normal1" carFollowModel="EIDM" laneChangeModel="SL2015" minGap="3.16" accel="2.08" decel="2.87" emergencyDecel="5.16" startupDelay="1.58" tau="3.16" maxSpeed="25.78" speedFactor="0.68" ccoolness="0.67" sigmaleader="0.22" sigmagap="0.22" sigmaerror="0.22" jerkmax="3.16" epsilonacc="0.79" taccmax="1.58" lcStrategic="3.16" lcCooperative="0.67" lcSpeedGain="0.79" lcKeepRight="1.58" lcOvertakeRight="0.22" lcSpeedGainLookahead="1.58" lcOvertakeDeltaSpeedFactor="0.67" lcPushy="0.22" lcAssertive="1.58" lcImpatience="0.67" lcTimeToImpatience="7.89" lcLaneDiscipline="1.58" lcSigma="0.22" lcAccelLat="0.79" probability="0.2">
		<param key="device.rerouting.probability" value="1.0" />
		<param key="device.rerouting.adaptation-steps" value="18" />
		<param key="device.rerouting.adaptation-interval" value="10" />
	</vType>
	<vType id="v_normal0" carFollowModel="EIDM" laneChangeModel="SL2015" minGap="3.16" accel="2.08" decel="2.87" emergencyDecel="5.16" startupDelay="1.58" tau="3.16" maxSpeed="25.78" speedFactor="0.68" ccoolness="0.67" sigmaleader="0.22" sigmagap="0.22" sigmaerror="0.22" jerkmax="3.16" epsilonacc="0.79" taccmax="1.58" lcStrategic="3.16" lcCooperative="0.67" lcSpeedGain="0.79" lcKeepRight="1.58" lcOvertakeRight="0.22" lcSpeedGainLookahead="1.58" lcOvertakeDeltaSpeedFactor="0.67" lcPushy="0.22" lcAssertive="1.58" lcImpatience="0.67" lcTimeToImpatience="7.89" lcLaneDiscipline="1.58" lcSigma="0.22" lcAccelLat="0.79" probability="0.2">
		<param key="device.rerouting.probability" value="1.0" />
		<param key="device.rerouting.adaptation-steps" value="18" />
		<param key="device.rerouting.adaptation-interval" value="10" />
	</vType>
	<trip id="veh0" type="v_aggressive2" depart="0" from="25.0.00" to="25.0.00">
	<stop edge="-7.0.00" duration="10" />
	<stop edge="25.0.00" duration="20" />
	<stop edge="-43.0.00" duration="10" />
	<stop edge="25.0.00" duration="10" />
	<stop edge="-52.0.00" duration="10" />
	<stop edge="-43.0.00" duration="10" />
	<stop edge="-30.0.00" duration="10" />
	<stop edge="35.0.00" duration="10" />
	<stop edge="25.0.00" duration="10" />
	<stop edge="-7.0.00" duration="10" />
	<stop edge="51.0.00" duration="10" />
	<stop edge="25.0.00" duration="10" />
	<stop edge="-43.0.00" duration="10" />
</trip>
</routes>